

        *** GPGPU-Sim Simulator Version 3.2.2  [build 0] ***


GPGPU-Sim PTX: simulation mode 0 (can change with PTX_SIM_MODE_FUNC environment variable:
               1=functional simulation only, 0=detailed performance simulator)
GPGPU-Sim: Configuration options:

-network_mode                           1 # Interconnection network mode
-inter_config_file   config_fermi_islip.icnt # Interconnection network config file
-gpgpu_ptx_use_cuobjdump                    1 # Use cuobjdump to extract ptx and sass from binaries
-gpgpu_experimental_lib_support                    0 # Try to extract code from cuda libraries [Broken because of unknown cudaGetExportTable]
-gpgpu_ptx_convert_to_ptxplus                    0 # Convert SASS (native ISA) to ptxplus and run ptxplus
-gpgpu_ptx_force_max_capability                   20 # Force maximum compute capability
-gpgpu_ptx_inst_debug_to_file                    0 # Dump executed instructions' debug information to file
-gpgpu_ptx_inst_debug_file       inst_debug.txt # Executed instructions' debug output file
-gpgpu_ptx_inst_debug_thread_uid                    1 # Thread UID for executed instructions' debug output
-gpgpu_simd_model                       1 # 1 = post-dominator
-gpgpu_shader_core_pipeline              1536:32 # shader core pipeline config, i.e., {<nthread>:<warpsize>}
-gpgpu_tex_cache:l1  4:128:24,L:R:m:N:L,F:128:4,128:2 # per-shader L1 texture cache  (READ-ONLY) config  {<nsets>:<bsize>:<assoc>,<rep>:<wr>:<alloc>:<wr_alloc>,<mshr>:<N>:<merge>,<mq>:<rf>}
-gpgpu_const_cache:l1 64:64:2,L:R:f:N:L,A:2:32,4 # per-shader L1 constant memory cache  (READ-ONLY) config  {<nsets>:<bsize>:<assoc>,<rep>:<wr>:<alloc>:<wr_alloc>,<mshr>:<N>:<merge>,<mq>} 
-gpgpu_cache:il1     4:128:4,L:R:f:N:L,A:2:32,4 # shader L1 instruction cache config  {<nsets>:<bsize>:<assoc>,<rep>:<wr>:<alloc>:<wr_alloc>,<mshr>:<N>:<merge>,<mq>} 
-gpgpu_cache:dl1     32:128:4,L:L:m:N:H,A:32:8,8:2,0,1:0:1:1:0:1,1:4:8:16:32:64,/sciclone/data10/hwang07/GPU_RESEARCH/swl/swl_outputs/RESULTS/swl8/ # per-shader L1 data cache config  {<nsets>:<bsize>:<assoc>,<rep>:<wr>:<alloc>:<wr_alloc>,<mshr>:<N>:<merge>,<mq> | none}
-gpgpu_cache:dl1PrefL1                 none # per-shader L1 data cache config  {<nsets>:<bsize>:<assoc>,<rep>:<wr>:<alloc>:<wr_alloc>,<mshr>:<N>:<merge>,<mq> | none}
-gpgpu_cache:dl1PreShared                 none # per-shader L1 data cache config  {<nsets>:<bsize>:<assoc>,<rep>:<wr>:<alloc>:<wr_alloc>,<mshr>:<N>:<merge>,<mq> | none}
-gmem_skip_L1D                          0 # global memory access skip L1D cache (implements -Xptxas -dlcm=cg, default=no skip)
-gpgpu_perfect_mem                      0 # enable perfect memory mode (no cache miss)
-n_regfile_gating_group                    4 # group of lanes that should be read/written together)
-gpgpu_clock_gated_reg_file                    0 # enable clock gated reg file for power calculations
-gpgpu_clock_gated_lanes                    0 # enable clock gated lanes for power calculations
-gpgpu_shader_registers                32768 # Number of registers per shader core. Limits number of concurrent CTAs. (default 8192)
-gpgpu_shader_cta                       8 # Maximum number of concurrent CTAs in shader (default 8)
-gpgpu_num_cta_barriers                   16 # Maximum number of named barriers per CTA (default 16)
-gpgpu_n_clusters                      15 # number of processing clusters
-gpgpu_n_cores_per_cluster                    1 # number of simd cores per cluster
-gpgpu_n_cluster_ejection_buffer_size                    8 # number of packets in ejection buffer
-gpgpu_n_ldst_response_buffer_size                    2 # number of response packets in ld/st unit ejection buffer
-gpgpu_shmem_size                   16384 # Size of shared memory per shader core (default 16kB)
-gpgpu_shmem_size                   49152 # Size of shared memory per shader core (default 16kB)
-gpgpu_shmem_size_PrefL1                16384 # Size of shared memory per shader core (default 16kB)
-gpgpu_shmem_size_PrefShared                16384 # Size of shared memory per shader core (default 16kB)
-gpgpu_shmem_num_banks                   32 # Number of banks in the shared memory in each shader core (default 16)
-gpgpu_shmem_limited_broadcast                    0 # Limit shared memory to do one broadcast per cycle (default on)
-gpgpu_shmem_warp_parts                    1 # Number of portions a warp is divided into for shared memory bank conflict check 
-gpgpu_warpdistro_shader                   -1 # Specify which shader core to collect the warp size distribution from
-gpgpu_warp_issue_shader                    0 # Specify which shader core to collect the warp issue distribution from
-gpgpu_local_mem_map                    1 # Mapping from local memory space address to simulated GPU physical address space (default = enabled)
-gpgpu_num_reg_banks                   16 # Number of register banks (default = 8)
-gpgpu_reg_bank_use_warp_id                    0 # Use warp ID in mapping registers to banks (default = off)
-gpgpu_operand_collector_num_units_sp                    6 # number of collector units (default = 4)
-gpgpu_operand_collector_num_units_sfu                    8 # number of collector units (default = 4)
-gpgpu_operand_collector_num_units_mem                    2 # number of collector units (default = 2)
-gpgpu_operand_collector_num_units_gen                    0 # number of collector units (default = 0)
-gpgpu_operand_collector_num_in_ports_sp                    2 # number of collector unit in ports (default = 1)
-gpgpu_operand_collector_num_in_ports_sfu                    1 # number of collector unit in ports (default = 1)
-gpgpu_operand_collector_num_in_ports_mem                    1 # number of collector unit in ports (default = 1)
-gpgpu_operand_collector_num_in_ports_gen                    0 # number of collector unit in ports (default = 0)
-gpgpu_operand_collector_num_out_ports_sp                    2 # number of collector unit in ports (default = 1)
-gpgpu_operand_collector_num_out_ports_sfu                    1 # number of collector unit in ports (default = 1)
-gpgpu_operand_collector_num_out_ports_mem                    1 # number of collector unit in ports (default = 1)
-gpgpu_operand_collector_num_out_ports_gen                    0 # number of collector unit in ports (default = 0)
-gpgpu_coalesce_arch                   13 # Coalescing arch (default = 13, anything else is off for now)
-gpgpu_num_sched_per_core                    2 # Number of warp schedulers per core
-gpgpu_max_insn_issue_per_warp                    1 # Max number of instructions that can be issued per warp in one cycle by scheduler
-gpgpu_simt_core_sim_order                    1 # Select the simulation order of cores in a cluster (0=Fix, 1=Round-Robin)
-gpgpu_pipeline_widths        2,1,1,2,1,1,2 # Pipeline widths ID_OC_SP,ID_OC_SFU,ID_OC_MEM,OC_EX_SP,OC_EX_SFU,OC_EX_MEM,EX_WB
-gpgpu_num_sp_units                     2 # Number of SP units (default=1)
-gpgpu_num_sfu_units                    1 # Number of SF units (default=1)
-gpgpu_num_mem_units                    1 # Number if ldst units (default=1) WARNING: not hooked up to anything
-gpgpu_scheduler        warp_limiting:2:8 # Scheduler configuration: < lrr | gto | two_level_active > If two_level_active:<num_active_warps>:<inner_prioritization>:<outer_prioritization>For complete list of prioritization values see shader.h enum scheduler_prioritization_typeDefault: gto
-gpgpu_dram_scheduler                    1 # 0 = fifo, 1 = FR-FCFS (defaul)
-gpgpu_dram_partition_queues              8:8:8:8 # i2$:$2d:d2$:$2i
-l2_ideal                               0 # Use a ideal L2 cache that always hit
-gpgpu_cache:dl2     64:128:8,L:B:m:W:L,A:32:4,4:0,32 # unified banked L2 data cache config  {<nsets>:<bsize>:<assoc>,<rep>:<wr>:<alloc>:<wr_alloc>,<mshr>:<N>:<merge>,<mq>}
-gpgpu_cache:dl2_texture_only                    0 # L2 cache used for texture only
-gpgpu_n_mem                            6 # number of memory modules (e.g. memory controllers) in gpu
-gpgpu_n_sub_partition_per_mchannel                    2 # number of memory subpartition in each memory module
-gpgpu_n_mem_per_ctrlr                    2 # number of memory chips per memory controller
-gpgpu_memlatency_stat                   14 # track and display latency statistics 0x2 enables MC, 0x4 enables queue logs
-gpgpu_frfcfs_dram_sched_queue_size                   16 # 0 = unlimited (default); # entries per chip
-gpgpu_dram_return_queue_size                  116 # 0 = unlimited (default); # entries per chip
-gpgpu_dram_buswidth                    4 # default = 4 bytes (8 bytes per cycle at DDR)
-gpgpu_dram_burst_length                    8 # Burst length of each DRAM request (default = 4 data bus cycle)
-dram_data_command_freq_ratio                    4 # Frequency ratio between DRAM data bus and command bus (default = 2 times, i.e. DDR)
-gpgpu_dram_timing_opt nbk=16:CCD=2:RRD=6:RCD=12:RAS=28:RP=12:RC=40: CL=12:WL=4:CDLR=5:WR=12:nbkgrp=4:CCDL=3:RTPL=2 # DRAM timing parameters = {nbk:tCCD:tRRD:tRCD:tRAS:tRP:tRC:CL:WL:tCDLR:tWR:nbkgrp:tCCDL:tRTPL}
-rop_latency                          120 # ROP queue latency (default 85)
-dram_latency                         100 # DRAM latency (default 30)
-gpgpu_mem_addr_mapping dramid@8;00000000.00000000.00000000.00000000.0000RRRR.RRRRRRRR.BBBCCCCB.CCSSSSSS # mapping memory address to dram model {dramid@<start bit>;<memory address map>}
-gpgpu_mem_addr_test                    0 # run sweep test to check address mapping for aliased address
-gpgpu_mem_address_mask                    1 # 0 = old addressing mask, 1 = new addressing mask, 2 = new add. mask + flipped bank sel and chip sel bits
-gpuwattch_xml_file  gpuwattch_gtx480.xml # GPUWattch XML file
-power_simulation_enabled                    0 # Turn on power simulator (1=On, 0=Off)
-power_per_cycle_dump                    0 # Dump detailed power output each cycle
-power_trace_enabled                    0 # produce a file for the power trace (1=On, 0=Off)
-power_trace_zlevel                     6 # Compression level of the power trace output log (0=no comp, 9=highest)
-steady_power_levels_enabled                    0 # produce a file for the steady power levels (1=On, 0=Off)
-steady_state_definition                  8:4 # allowed deviation:number of samples
-gpgpu_max_cycle                        0 # terminates gpu simulation early (0 = no limit)
-gpgpu_max_insn                         0 # terminates gpu simulation early (0 = no limit)
-gpgpu_max_cta                          0 # terminates gpu simulation early (0 = no limit)
-gpgpu_runtime_stat                   500 # display runtime statistics such as dram utilization {<freq>:<flag>}
-liveness_message_freq                    1 # Minimum number of seconds between simulation liveness messages (0 = always print)
-gpgpu_flush_l1_cache                    0 # Flush L1 cache at the end of each kernel call
-gpgpu_flush_l2_cache                    0 # Flush L2 cache at the end of each kernel call
-gpgpu_deadlock_detect                    1 # Stop the simulation at deadlock (1=on (default), 0=off)
-gpgpu_ptx_instruction_classification                    0 # if enabled will classify ptx instruction types per kernel (Max 255 kernels now)
-gpgpu_ptx_sim_mode                     0 # Select between Performance (default) or Functional simulation (1)
-gpgpu_clock_domains 700.0:700.0:700.0:924.0 # Clock Domain Frequencies in MhZ {<Core Clock>:<ICNT Clock>:<L2 Clock>:<DRAM Clock>}
-gpgpu_max_concurrent_kernel                    8 # maximum kernels that can run concurrently on GPU
-gpgpu_cflog_interval                    0 # Interval between each snapshot in control flow logger
-visualizer_enabled                     0 # Turn on visualizer output (1=On, 0=Off)
-visualizer_outputfile                 NULL # Specifies the output log file for visualizer
-visualizer_zlevel                      6 # Compression level of the visualizer output log (0=no comp, 9=highest)
-trace_enabled                          0 # Turn on traces
-trace_components                    none # comma seperated list of traces to enable. Complete list found in trace_streams.tup. Default none
-trace_sampling_core                    0 # The core which is printed using CORE_DPRINTF. Default 0
-trace_sampling_memory_partition                   -1 # The memory partition which is printed using MEMPART_DPRINTF. Default -1 (i.e. all)
-enable_ptx_file_line_stats                    1 # Turn on PTX source line statistic profiling. (1 = On)
-ptx_line_stats_filename gpgpu_inst_stats.txt # Output file for PTX source line statistics.
-save_embedded_ptx                      0 # saves ptx files embedded in binary as <n>.ptx
-keep                                   0 # keep intermediate files created by GPGPU-Sim when interfacing with external programs
-gpgpu_ptx_save_converted_ptxplus                    0 # Saved converted ptxplus to a file
-ptx_opcode_latency_int         4,13,4,5,145 # Opcode latencies for integers <ADD,MAX,MUL,MAD,DIV>Default 1,1,19,25,145
-ptx_opcode_latency_fp          4,13,4,5,39 # Opcode latencies for single precision floating points <ADD,MAX,MUL,MAD,DIV>Default 1,1,1,1,30
-ptx_opcode_latency_dp         8,19,8,8,330 # Opcode latencies for double precision floating points <ADD,MAX,MUL,MAD,DIV>Default 8,8,8,8,335
-ptx_opcode_initiation_int            1,2,2,1,8 # Opcode initiation intervals for integers <ADD,MAX,MUL,MAD,DIV>Default 1,1,4,4,32
-ptx_opcode_initiation_fp            1,2,1,1,4 # Opcode initiation intervals for single precision floating points <ADD,MAX,MUL,MAD,DIV>Default 1,1,1,1,5
-ptx_opcode_initiation_dp         8,16,8,8,130 # Opcode initiation intervals for double precision floating points <ADD,MAX,MUL,MAD,DIV>Default 8,8,8,8,130
DRAM Timing Options:
nbk                                    16 # number of banks
CCD                                     2 # column to column delay
RRD                                     6 # minimal delay between activation of rows in different banks
RCD                                    12 # row to column delay
RAS                                    28 # time needed to activate row
RP                                     12 # time needed to precharge (deactivate) row
RC                                     40 # row cycle time
CDLR                                    5 # switching from write to read (changes tWTR)
WR                                     12 # last data-in to row precharge
CL                                     12 # CAS latency
WL                                      4 # Write latency
nbkgrp                                  4 # number of bank groups
CCDL                                    3 # column to column delay between accesses to different bank groups
RTPL                                    2 # read to precharge delay between accesses to different bank groups
Total number of memory sub partition = 12
addr_dec_mask[CHIP]  = 0000000000000000 	high:64 low:0
addr_dec_mask[BK]    = 000000000000e100 	high:16 low:8
addr_dec_mask[ROW]   = 000000000fff0000 	high:28 low:16
addr_dec_mask[COL]   = 0000000000001eff 	high:13 low:0
addr_dec_mask[BURST] = 000000000000003f 	high:6 low:0
sub_partition_id_mask = 0000000000000100
GPGPU-Sim uArch: clock freqs: 700000000.000000:700000000.000000:700000000.000000:924000000.000000
GPGPU-Sim uArch: clock periods: 0.00000000142857142857:0.00000000142857142857:0.00000000142857142857:0.00000000108225108225
*** Initializing Memory Statistics ***
GPGPU-Sim uArch: interconnect node map (shaderID+MemID to icntID)
GPGPU-Sim uArch: Memory nodes ID start from index: 15
GPGPU-Sim uArch:    0   1   2   3   4
GPGPU-Sim uArch:    5   6   7   8   9
GPGPU-Sim uArch:   10  11  12  13  14
GPGPU-Sim uArch:   15  16  17  18  19
GPGPU-Sim uArch:   20  21  22  23  24
GPGPU-Sim uArch:   25  26
GPGPU-Sim uArch: interconnect node reverse map (icntID to shaderID+MemID)
GPGPU-Sim uArch: Memory nodes start from ID: 15
GPGPU-Sim uArch:    0   1   2   3   4
GPGPU-Sim uArch:    5   6   7   8   9
GPGPU-Sim uArch:   10  11  12  13  14
GPGPU-Sim uArch:   15  16  17  18  19
GPGPU-Sim uArch:   20  21  22  23  24
GPGPU-Sim uArch:   25  26
c8a719e7400194cff1ea030763a5da04  /sciclone/data10/hwang07/adwait/applications/benchmarks/CUDA/SLA/gpgpu_ptx_sim__SLA
GPGPU-Sim uArch: performance model initialization complete.
GPGPU-Sim PTX: __cudaRegisterFatBinary, fat_cubin_handle = 1, filename=scanLargeArray.cu
self exe links to: /sciclone/data10/hwang07/adwait/applications/benchmarks/CUDA/SLA/gpgpu_ptx_sim__SLA
Running md5sum using "md5sum /sciclone/data10/hwang07/adwait/applications/benchmarks/CUDA/SLA/gpgpu_ptx_sim__SLA "
Parsing file _cuobjdump_complete_output_tL1luP
######### cuobjdump parser ########
## Adding new section ELF
Adding arch: sm_20
Adding identifier: scanLargeArray.cu
## Adding new section PTX
Adding ptx filename: _cuobjdump_1.ptx
Adding arch: sm_20
Adding identifier: scanLargeArray.cu
Done parsing!!!
GPGPU-Sim PTX: __cudaRegisterFunction _Z7prescanILb0ELb1EEvPfPKfS0_iii : hostFun 0x0x406651, fat_cubin_handle = 1
GPGPU-Sim PTX: allocating stack frame region for .param "__cudaretf__Z8buildSumPf" from 0x0 to 0x4
GPGPU-Sim PTX: allocating stack frame region for .param "__cudaparmf1__Z8buildSumPf" from 0x4 to 0xc
GPGPU-Sim PTX: allocating stack frame region for .param "__cudaparmf1__Z16scanRootToLeavesPfj" from 0x0 to 0x8
GPGPU-Sim PTX: allocating stack frame region for .param "__cudaparmf2__Z16scanRootToLeavesPfj" from 0x8 to 0xc
GPGPU-Sim PTX: allocating stack frame region for .param "__cudaparmf1__Z22loadSharedChunkFromMemILb0EEvPfPKfiiRiS3_S3_S3_S3_S3_" from 0x0 to 0x8
GPGPU-Sim PTX: allocating stack frame region for .param "__cudaparmf2__Z22loadSharedChunkFromMemILb0EEvPfPKfiiRiS3_S3_S3_S3_S3_" from 0x8 to 0x10
GPGPU-Sim PTX: allocating stack frame region for .param "__cudaparmf3__Z22loadSharedChunkFromMemILb0EEvPfPKfiiRiS3_S3_S3_S3_S3_" from 0x10 to 0x14
GPGPU-Sim PTX: allocating stack frame region for .param "__cudaparmf4__Z22loadSharedChunkFromMemILb0EEvPfPKfiiRiS3_S3_S3_S3_S3_" from 0x14 to 0x18
GPGPU-Sim PTX: allocating stack frame region for .param "__cudaparmf5__Z22loadSharedChunkFromMemILb0EEvPfPKfiiRiS3_S3_S3_S3_S3_" from 0x18 to 0x20
GPGPU-Sim PTX: allocating stack frame region for .param "__cudaparmf6__Z22loadSharedChunkFromMemILb0EEvPfPKfiiRiS3_S3_S3_S3_S3_" from 0x20 to 0x28
GPGPU-Sim PTX: allocating stack frame region for .param "__cudaparmf7__Z22loadSharedChunkFromMemILb0EEvPfPKfiiRiS3_S3_S3_S3_S3_" from 0x28 to 0x30
GPGPU-Sim PTX: allocating stack frame region for .param "__cudaparmf8__Z22loadSharedChunkFromMemILb0EEvPfPKfiiRiS3_S3_S3_S3_S3_" from 0x30 to 0x38
GPGPU-Sim PTX: allocating stack frame region for .param "__cudaparmf9__Z22loadSharedChunkFromMemILb0EEvPfPKfiiRiS3_S3_S3_S3_S3_" from 0x38 to 0x40
GPGPU-Sim PTX: allocating stack frame region for .param "__cudaparmf10__Z22loadSharedChunkFromMemILb0EEvPfPKfiiRiS3_S3_S3_S3_S3_" from 0x40 to 0x48
GPGPU-Sim PTX: allocating stack frame region for .param "__cudaparmf1__Z12prescanBlockILb1EEvPfiS0_" from 0x0 to 0x8
GPGPU-Sim PTX: allocating stack frame region for .param "__cudaparmf2__Z12prescanBlockILb1EEvPfiS0_" from 0x8 to 0xc
GPGPU-Sim PTX: allocating stack frame region for .param "__cudaparmf3__Z12prescanBlockILb1EEvPfiS0_" from 0xc to 0x14
GPGPU-Sim PTX: allocating stack frame region for .param "__cudaparmf1__Z16clearLastElementILb1EEvPfS0_i" from 0x0 to 0x8
GPGPU-Sim PTX: allocating stack frame region for .param "__cudaparmf2__Z16clearLastElementILb1EEvPfS0_i" from 0x8 to 0x10
GPGPU-Sim PTX: allocating stack frame region for .param "__cudaparmf3__Z16clearLastElementILb1EEvPfS0_i" from 0x10 to 0x14
GPGPU-Sim PTX: allocating stack frame region for .param "__cudaparmf1__Z21storeSharedChunkToMemILb0EEvPfPKfiiiiiii" from 0x0 to 0x8
GPGPU-Sim PTX: allocating stack frame region for .param "__cudaparmf2__Z21storeSharedChunkToMemILb0EEvPfPKfiiiiiii" from 0x8 to 0x10
GPGPU-Sim PTX: allocating stack frame region for .param "__cudaparmf3__Z21storeSharedChunkToMemILb0EEvPfPKfiiiiiii" from 0x10 to 0x14
GPGPU-Sim PTX: allocating stack frame region for .param "__cudaparmf4__Z21storeSharedChunkToMemILb0EEvPfPKfiiiiiii" from 0x14 to 0x18
GPGPU-Sim PTX: allocating stack frame region for .param "__cudaparmf5__Z21storeSharedChunkToMemILb0EEvPfPKfiiiiiii" from 0x18 to 0x1c
GPGPU-Sim PTX: allocating stack frame region for .param "__cudaparmf6__Z21storeSharedChunkToMemILb0EEvPfPKfiiiiiii" from 0x1c to 0x20
GPGPU-Sim PTX: allocating stack frame region for .param "__cudaparmf7__Z21storeSharedChunkToMemILb0EEvPfPKfiiiiiii" from 0x20 to 0x24
GPGPU-Sim PTX: allocating stack frame region for .param "__cudaparmf8__Z21storeSharedChunkToMemILb0EEvPfPKfiiiiiii" from 0x24 to 0x28
GPGPU-Sim PTX: allocating stack frame region for .param "__cudaparmf9__Z21storeSharedChunkToMemILb0EEvPfPKfiiiiiii" from 0x28 to 0x2c
GPGPU-Sim PTX: allocating stack frame region for .param "__cudaparmf1__Z22loadSharedChunkFromMemILb1EEvPfPKfiiRiS3_S3_S3_S3_S3_" from 0x0 to 0x8
GPGPU-Sim PTX: allocating stack frame region for .param "__cudaparmf2__Z22loadSharedChunkFromMemILb1EEvPfPKfiiRiS3_S3_S3_S3_S3_" from 0x8 to 0x10
GPGPU-Sim PTX: allocating stack frame region for .param "__cudaparmf3__Z22loadSharedChunkFromMemILb1EEvPfPKfiiRiS3_S3_S3_S3_S3_" from 0x10 to 0x14
GPGPU-Sim PTX: allocating stack frame region for .param "__cudaparmf4__Z22loadSharedChunkFromMemILb1EEvPfPKfiiRiS3_S3_S3_S3_S3_" from 0x14 to 0x18
GPGPU-Sim PTX: allocating stack frame region for .param "__cudaparmf5__Z22loadSharedChunkFromMemILb1EEvPfPKfiiRiS3_S3_S3_S3_S3_" from 0x18 to 0x20
GPGPU-Sim PTX: allocating stack frame region for .param "__cudaparmf6__Z22loadSharedChunkFromMemILb1EEvPfPKfiiRiS3_S3_S3_S3_S3_" from 0x20 to 0x28
GPGPU-Sim PTX: allocating stack frame region for .param "__cudaparmf7__Z22loadSharedChunkFromMemILb1EEvPfPKfiiRiS3_S3_S3_S3_S3_" from 0x28 to 0x30
GPGPU-Sim PTX: allocating stack frame region for .param "__cudaparmf8__Z22loadSharedChunkFromMemILb1EEvPfPKfiiRiS3_S3_S3_S3_S3_" from 0x30 to 0x38
GPGPU-Sim PTX: allocating stack frame region for .param "__cudaparmf9__Z22loadSharedChunkFromMemILb1EEvPfPKfiiRiS3_S3_S3_S3_S3_" from 0x38 to 0x40
GPGPU-Sim PTX: allocating stack frame region for .param "__cudaparmf10__Z22loadSharedChunkFromMemILb1EEvPfPKfiiRiS3_S3_S3_S3_S3_" from 0x40 to 0x48
GPGPU-Sim PTX: allocating stack frame region for .param "__cudaparmf1__Z21storeSharedChunkToMemILb1EEvPfPKfiiiiiii" from 0x0 to 0x8
GPGPU-Sim PTX: allocating stack frame region for .param "__cudaparmf2__Z21storeSharedChunkToMemILb1EEvPfPKfiiiiiii" from 0x8 to 0x10
GPGPU-Sim PTX: allocating stack frame region for .param "__cudaparmf3__Z21storeSharedChunkToMemILb1EEvPfPKfiiiiiii" from 0x10 to 0x14
GPGPU-Sim PTX: allocating stack frame region for .param "__cudaparmf4__Z21storeSharedChunkToMemILb1EEvPfPKfiiiiiii" from 0x14 to 0x18
GPGPU-Sim PTX: allocating stack frame region for .param "__cudaparmf5__Z21storeSharedChunkToMemILb1EEvPfPKfiiiiiii" from 0x18 to 0x1c
GPGPU-Sim PTX: allocating stack frame region for .param "__cudaparmf6__Z21storeSharedChunkToMemILb1EEvPfPKfiiiiiii" from 0x1c to 0x20
GPGPU-Sim PTX: allocating stack frame region for .param "__cudaparmf7__Z21storeSharedChunkToMemILb1EEvPfPKfiiiiiii" from 0x20 to 0x24
GPGPU-Sim PTX: allocating stack frame region for .param "__cudaparmf8__Z21storeSharedChunkToMemILb1EEvPfPKfiiiiiii" from 0x24 to 0x28
GPGPU-Sim PTX: allocating stack frame region for .param "__cudaparmf9__Z21storeSharedChunkToMemILb1EEvPfPKfiiiiiii" from 0x28 to 0x2c
GPGPU-Sim PTX: allocating stack frame region for .param "__cudaparmf1__Z12prescanBlockILb0EEvPfiS0_" from 0x0 to 0x8
GPGPU-Sim PTX: allocating stack frame region for .param "__cudaparmf2__Z12prescanBlockILb0EEvPfiS0_" from 0x8 to 0xc
GPGPU-Sim PTX: allocating stack frame region for .param "__cudaparmf3__Z12prescanBlockILb0EEvPfiS0_" from 0xc to 0x14
GPGPU-Sim PTX: allocating stack frame region for .param "__cudaparmf1__Z16clearLastElementILb0EEvPfS0_i" from 0x0 to 0x8
GPGPU-Sim PTX: allocating stack frame region for .param "__cudaparmf2__Z16clearLastElementILb0EEvPfS0_i" from 0x8 to 0x10
GPGPU-Sim PTX: allocating stack frame region for .param "__cudaparmf3__Z16clearLastElementILb0EEvPfS0_i" from 0x10 to 0x14
GPGPU-Sim PTX: allocating stack frame region for .param "__cudaretf__ZSt5frexpfPi" from 0x0 to 0x4
GPGPU-Sim PTX: allocating stack frame region for .param "__cudaparmf1__ZSt5frexpfPi" from 0x4 to 0x8
GPGPU-Sim PTX: allocating stack frame region for .param "__cudaparmf2__ZSt5frexpfPi" from 0x8 to 0x10
GPGPU-Sim PTX: instruction assembly for function '_Z8buildSumPf'...   done.
GPGPU-Sim PTX: finding reconvergence points for '_Z8buildSumPf'...
GPGPU-Sim PTX: Finding dominators for '_Z8buildSumPf'...
GPGPU-Sim PTX: Finding immediate dominators for '_Z8buildSumPf'...
GPGPU-Sim PTX: Finding postdominators for '_Z8buildSumPf'...
GPGPU-Sim PTX: Finding immediate postdominators for '_Z8buildSumPf'...
GPGPU-Sim PTX: pre-decoding instructions for '_Z8buildSumPf'...
GPGPU-Sim PTX: reconvergence points for _Z8buildSumPf...
GPGPU-Sim PTX:  1 (potential) branch divergence @  PC=0x030 (_1.ptx:89) @%p1 bra $Lt_0_3586;
GPGPU-Sim PTX:    immediate post dominator      @  PC=0x140 (_1.ptx:132) mov.s32 %r18, %r5;
GPGPU-Sim PTX:  2 (potential) branch divergence @  PC=0x058 (_1.ptx:96) @%p2 bra $Lt_0_2818;
GPGPU-Sim PTX:    immediate post dominator      @  PC=0x108 (_1.ptx:121) mul.lo.u32 %r5, %r5, 2;
GPGPU-Sim PTX:  3 (potential) branch divergence @  PC=0x128 (_1.ptx:126) @%p3 bra $Lt_0_2562;
GPGPU-Sim PTX:    immediate post dominator      @  PC=0x130 (_1.ptx:127) bra.uni $Lt_0_2050;
GPGPU-Sim PTX:  4 (potential) branch divergence @  PC=0x130 (_1.ptx:127) bra.uni $Lt_0_2050;
GPGPU-Sim PTX:    immediate post dominator      @  PC=0x140 (_1.ptx:132) mov.s32 %r18, %r5;
GPGPU-Sim PTX: ... end of reconvergence points for _Z8buildSumPf
GPGPU-Sim PTX: ... done pre-decoding instructions for '_Z8buildSumPf'.
GPGPU-Sim PTX: instruction assembly for function '_Z16scanRootToLeavesPfj'...   done.
GPGPU-Sim PTX: finding reconvergence points for '_Z16scanRootToLeavesPfj'...
GPGPU-Sim PTX: Finding dominators for '_Z16scanRootToLeavesPfj'...
GPGPU-Sim PTX: Finding immediate dominators for '_Z16scanRootToLeavesPfj'...
GPGPU-Sim PTX: Finding postdominators for '_Z16scanRootToLeavesPfj'...
GPGPU-Sim PTX: Finding immediate postdominators for '_Z16scanRootToLeavesPfj'...
GPGPU-Sim PTX: pre-decoding instructions for '_Z16scanRootToLeavesPfj'...
GPGPU-Sim PTX: reconvergence points for _Z16scanRootToLeavesPfj...
GPGPU-Sim PTX:  1 (potential) branch divergence @  PC=0x190 (_1.ptx:153) @%p1 bra $Lt_1_2050;
GPGPU-Sim PTX:    immediate post dominator      @  PC=0x298 (_1.ptx:197) ret;
GPGPU-Sim PTX:  2 (potential) branch divergence @  PC=0x1c0 (_1.ptx:163) @%p2 bra $Lt_1_2818;
GPGPU-Sim PTX:    immediate post dominator      @  PC=0x280 (_1.ptx:192) mul.lo.s32 %r6, %r6, 2;
GPGPU-Sim PTX:  3 (potential) branch divergence @  PC=0x290 (_1.ptx:194) @%p3 bra $Lt_1_2562;
GPGPU-Sim PTX:    immediate post dominator      @  PC=0x298 (_1.ptx:197) ret;
GPGPU-Sim PTX: ... end of reconvergence points for _Z16scanRootToLeavesPfj
GPGPU-Sim PTX: ... done pre-decoding instructions for '_Z16scanRootToLeavesPfj'.
GPGPU-Sim PTX: instruction assembly for function '_Z22loadSharedChunkFromMemILb0EEvPfPKfiiRiS3_S3_S3_S3_S3_'...   done.
GPGPU-Sim PTX: finding reconvergence points for '_Z22loadSharedChunkFromMemILb0EEvPfPKfiiRiS3_S3_S3_S3_S3_'...
GPGPU-Sim PTX: Finding dominators for '_Z22loadSharedChunkFromMemILb0EEvPfPKfiiRiS3_S3_S3_S3_S3_'...
GPGPU-Sim PTX: Finding immediate dominators for '_Z22loadSharedChunkFromMemILb0EEvPfPKfiiRiS3_S3_S3_S3_S3_'...
GPGPU-Sim PTX: Finding postdominators for '_Z22loadSharedChunkFromMemILb0EEvPfPKfiiRiS3_S3_S3_S3_S3_'...
GPGPU-Sim PTX: Finding immediate postdominators for '_Z22loadSharedChunkFromMemILb0EEvPfPKfiiRiS3_S3_S3_S3_S3_'...
GPGPU-Sim PTX: pre-decoding instructions for '_Z22loadSharedChunkFromMemILb0EEvPfPKfiiRiS3_S3_S3_S3_S3_'...
GPGPU-Sim PTX: reconvergence points for _Z22loadSharedChunkFromMemILb0EEvPfPKfiiRiS3_S3_S3_S3_S3_...
GPGPU-Sim PTX: ... end of reconvergence points for _Z22loadSharedChunkFromMemILb0EEvPfPKfiiRiS3_S3_S3_S3_S3_
GPGPU-Sim PTX: ... done pre-decoding instructions for '_Z22loadSharedChunkFromMemILb0EEvPfPKfiiRiS3_S3_S3_S3_S3_'.
GPGPU-Sim PTX: instruction assembly for function '_Z12prescanBlockILb1EEvPfiS0_'...   done.
GPGPU-Sim PTX: finding reconvergence points for '_Z12prescanBlockILb1EEvPfiS0_'...
GPGPU-Sim PTX: Finding dominators for '_Z12prescanBlockILb1EEvPfiS0_'...
GPGPU-Sim PTX: Finding immediate dominators for '_Z12prescanBlockILb1EEvPfiS0_'...
GPGPU-Sim PTX: Finding postdominators for '_Z12prescanBlockILb1EEvPfiS0_'...
GPGPU-Sim PTX: Finding immediate postdominators for '_Z12prescanBlockILb1EEvPfiS0_'...
GPGPU-Sim PTX: pre-decoding instructions for '_Z12prescanBlockILb1EEvPfiS0_'...
GPGPU-Sim PTX: reconvergence points for _Z12prescanBlockILb1EEvPfiS0_...
GPGPU-Sim PTX:  1 (potential) branch divergence @  PC=0x4c8 (_1.ptx:298) @%p1 bra $Lt_3_9730;
GPGPU-Sim PTX:    immediate post dominator      @  PC=0x5e0 (_1.ptx:342) mov.u32 %r20, %ntid.x;
GPGPU-Sim PTX:  2 (potential) branch divergence @  PC=0x4f0 (_1.ptx:305) @%p2 bra $Lt_3_6914;
GPGPU-Sim PTX:    immediate post dominator      @  PC=0x5a0 (_1.ptx:330) mul.lo.u32 %r7, %r7, 2;
GPGPU-Sim PTX:  3 (potential) branch divergence @  PC=0x5c0 (_1.ptx:335) @%p3 bra $Lt_3_6658;
GPGPU-Sim PTX:    immediate post dominator      @  PC=0x5c8 (_1.ptx:336) bra.uni $Lt_3_6146;
GPGPU-Sim PTX:  4 (potential) branch divergence @  PC=0x5c8 (_1.ptx:336) bra.uni $Lt_3_6146;
GPGPU-Sim PTX:    immediate post dominator      @  PC=0x5e0 (_1.ptx:342) mov.u32 %r20, %ntid.x;
GPGPU-Sim PTX:  5 (potential) branch divergence @  PC=0x5f8 (_1.ptx:345) @%p4 bra $Lt_3_7682;
GPGPU-Sim PTX:    immediate post dominator      @  PC=0x690 (_1.ptx:368) mov.s32 %r29, %r7;
GPGPU-Sim PTX:  6 (potential) branch divergence @  PC=0x6a8 (_1.ptx:371) @%p6 bra $Lt_3_8194;
GPGPU-Sim PTX:    immediate post dominator      @  PC=0x7a8 (_1.ptx:414) ret;
GPGPU-Sim PTX:  7 (potential) branch divergence @  PC=0x6d0 (_1.ptx:380) @%p7 bra $Lt_3_8962;
GPGPU-Sim PTX:    immediate post dominator      @  PC=0x790 (_1.ptx:409) mul.lo.s32 %r31, %r31, 2;
GPGPU-Sim PTX:  8 (potential) branch divergence @  PC=0x7a0 (_1.ptx:411) @%p8 bra $Lt_3_8706;
GPGPU-Sim PTX:    immediate post dominator      @  PC=0x7a8 (_1.ptx:414) ret;
GPGPU-Sim PTX: ... end of reconvergence points for _Z12prescanBlockILb1EEvPfiS0_
GPGPU-Sim PTX: ... done pre-decoding instructions for '_Z12prescanBlockILb1EEvPfiS0_'.
GPGPU-Sim PTX: instruction assembly for function '_Z16clearLastElementILb1EEvPfS0_i'...   done.
GPGPU-Sim PTX: finding reconvergence points for '_Z16clearLastElementILb1EEvPfS0_i'...
GPGPU-Sim PTX: Finding dominators for '_Z16clearLastElementILb1EEvPfS0_i'...
GPGPU-Sim PTX: Finding immediate dominators for '_Z16clearLastElementILb1EEvPfS0_i'...
GPGPU-Sim PTX: Finding postdominators for '_Z16clearLastElementILb1EEvPfS0_i'...
GPGPU-Sim PTX: Finding immediate postdominators for '_Z16clearLastElementILb1EEvPfS0_i'...
GPGPU-Sim PTX: pre-decoding instructions for '_Z16clearLastElementILb1EEvPfS0_i'...
GPGPU-Sim PTX: reconvergence points for _Z16clearLastElementILb1EEvPfS0_i...
GPGPU-Sim PTX:  1 (potential) branch divergence @  PC=0x7f8 (_1.ptx:435) @%p1 bra $Lt_4_1794;
GPGPU-Sim PTX:    immediate post dominator      @  PC=0x878 (_1.ptx:455) ret;
GPGPU-Sim PTX: ... end of reconvergence points for _Z16clearLastElementILb1EEvPfS0_i
GPGPU-Sim PTX: ... done pre-decoding instructions for '_Z16clearLastElementILb1EEvPfS0_i'.
GPGPU-Sim PTX: instruction assembly for function '_Z21storeSharedChunkToMemILb0EEvPfPKfiiiiiii'...   done.
GPGPU-Sim PTX: finding reconvergence points for '_Z21storeSharedChunkToMemILb0EEvPfPKfiiiiiii'...
GPGPU-Sim PTX: Finding dominators for '_Z21storeSharedChunkToMemILb0EEvPfPKfiiiiiii'...
GPGPU-Sim PTX: Finding immediate dominators for '_Z21storeSharedChunkToMemILb0EEvPfPKfiiiiiii'...
GPGPU-Sim PTX: Finding postdominators for '_Z21storeSharedChunkToMemILb0EEvPfPKfiiiiiii'...
GPGPU-Sim PTX: Finding immediate postdominators for '_Z21storeSharedChunkToMemILb0EEvPfPKfiiiiiii'...
GPGPU-Sim PTX: pre-decoding instructions for '_Z21storeSharedChunkToMemILb0EEvPfPKfiiiiiii'...
GPGPU-Sim PTX: reconvergence points for _Z21storeSharedChunkToMemILb0EEvPfPKfiiiiiii...
GPGPU-Sim PTX: ... end of reconvergence points for _Z21storeSharedChunkToMemILb0EEvPfPKfiiiiiii
GPGPU-Sim PTX: ... done pre-decoding instructions for '_Z21storeSharedChunkToMemILb0EEvPfPKfiiiiiii'.
GPGPU-Sim PTX: instruction assembly for function '_Z22loadSharedChunkFromMemILb1EEvPfPKfiiRiS3_S3_S3_S3_S3_'...   done.
GPGPU-Sim PTX: finding reconvergence points for '_Z22loadSharedChunkFromMemILb1EEvPfPKfiiRiS3_S3_S3_S3_S3_'...
GPGPU-Sim PTX: Finding dominators for '_Z22loadSharedChunkFromMemILb1EEvPfPKfiiRiS3_S3_S3_S3_S3_'...
GPGPU-Sim PTX: Finding immediate dominators for '_Z22loadSharedChunkFromMemILb1EEvPfPKfiiRiS3_S3_S3_S3_S3_'...
GPGPU-Sim PTX: Finding postdominators for '_Z22loadSharedChunkFromMemILb1EEvPfPKfiiRiS3_S3_S3_S3_S3_'...
GPGPU-Sim PTX: Finding immediate postdominators for '_Z22loadSharedChunkFromMemILb1EEvPfPKfiiRiS3_S3_S3_S3_S3_'...
GPGPU-Sim PTX: pre-decoding instructions for '_Z22loadSharedChunkFromMemILb1EEvPfPKfiiRiS3_S3_S3_S3_S3_'...
GPGPU-Sim PTX: reconvergence points for _Z22loadSharedChunkFromMemILb1EEvPfPKfiiRiS3_S3_S3_S3_S3_...
GPGPU-Sim PTX:  1 (potential) branch divergence @  PC=0xb28 (_1.ptx:572) @%p1 bra $Lt_6_2050;
GPGPU-Sim PTX:    immediate post dominator      @  PC=0xb68 (_1.ptx:583) ld.s32 %r21, [%rd16+0];
GPGPU-Sim PTX:  2 (potential) branch divergence @  PC=0xb58 (_1.ptx:579) bra.uni $Lt_6_1794;
GPGPU-Sim PTX:    immediate post dominator      @  PC=0xb68 (_1.ptx:583) ld.s32 %r21, [%rd16+0];
GPGPU-Sim PTX: ... end of reconvergence points for _Z22loadSharedChunkFromMemILb1EEvPfPKfiiRiS3_S3_S3_S3_S3_
GPGPU-Sim PTX: ... done pre-decoding instructions for '_Z22loadSharedChunkFromMemILb1EEvPfPKfiiRiS3_S3_S3_S3_S3_'.
GPGPU-Sim PTX: instruction assembly for function '_Z21storeSharedChunkToMemILb1EEvPfPKfiiiiiii'...   done.
GPGPU-Sim PTX: finding reconvergence points for '_Z21storeSharedChunkToMemILb1EEvPfPKfiiiiiii'...
GPGPU-Sim PTX: Finding dominators for '_Z21storeSharedChunkToMemILb1EEvPfPKfiiiiiii'...
GPGPU-Sim PTX: Finding immediate dominators for '_Z21storeSharedChunkToMemILb1EEvPfPKfiiiiiii'...
GPGPU-Sim PTX: Finding postdominators for '_Z21storeSharedChunkToMemILb1EEvPfPKfiiiiiii'...
GPGPU-Sim PTX: Finding immediate postdominators for '_Z21storeSharedChunkToMemILb1EEvPfPKfiiiiiii'...
GPGPU-Sim PTX: pre-decoding instructions for '_Z21storeSharedChunkToMemILb1EEvPfPKfiiiiiii'...
GPGPU-Sim PTX: reconvergence points for _Z21storeSharedChunkToMemILb1EEvPfPKfiiiiiii...
GPGPU-Sim PTX:  1 (potential) branch divergence @  PC=0xc80 (_1.ptx:631) @%p1 bra $Lt_7_1794;
GPGPU-Sim PTX:    immediate post dominator      @  PC=0xcd0 (_1.ptx:644) ret;
GPGPU-Sim PTX: ... end of reconvergence points for _Z21storeSharedChunkToMemILb1EEvPfPKfiiiiiii
GPGPU-Sim PTX: ... done pre-decoding instructions for '_Z21storeSharedChunkToMemILb1EEvPfPKfiiiiiii'.
GPGPU-Sim PTX: instruction assembly for function '_Z12prescanBlockILb0EEvPfiS0_'...   done.
GPGPU-Sim PTX: finding reconvergence points for '_Z12prescanBlockILb0EEvPfiS0_'...
GPGPU-Sim PTX: Finding dominators for '_Z12prescanBlockILb0EEvPfiS0_'...
GPGPU-Sim PTX: Finding immediate dominators for '_Z12prescanBlockILb0EEvPfiS0_'...
GPGPU-Sim PTX: Finding postdominators for '_Z12prescanBlockILb0EEvPfiS0_'...
GPGPU-Sim PTX: Finding immediate postdominators for '_Z12prescanBlockILb0EEvPfiS0_'...
GPGPU-Sim PTX: pre-decoding instructions for '_Z12prescanBlockILb0EEvPfiS0_'...
GPGPU-Sim PTX: reconvergence points for _Z12prescanBlockILb0EEvPfiS0_...
GPGPU-Sim PTX:  1 (potential) branch divergence @  PC=0xd08 (_1.ptx:663) @%p1 bra $Lt_8_10242;
GPGPU-Sim PTX:    immediate post dominator      @  PC=0xe20 (_1.ptx:707) mov.u32 %r18, %ntid.x;
GPGPU-Sim PTX:  2 (potential) branch divergence @  PC=0xd30 (_1.ptx:670) @%p2 bra $Lt_8_7426;
GPGPU-Sim PTX:    immediate post dominator      @  PC=0xde0 (_1.ptx:695) mul.lo.u32 %r5, %r5, 2;
GPGPU-Sim PTX:  3 (potential) branch divergence @  PC=0xe00 (_1.ptx:700) @%p3 bra $Lt_8_7170;
GPGPU-Sim PTX:    immediate post dominator      @  PC=0xe08 (_1.ptx:701) bra.uni $Lt_8_6658;
GPGPU-Sim PTX:  4 (potential) branch divergence @  PC=0xe08 (_1.ptx:701) bra.uni $Lt_8_6658;
GPGPU-Sim PTX:    immediate post dominator      @  PC=0xe20 (_1.ptx:707) mov.u32 %r18, %ntid.x;
GPGPU-Sim PTX:  5 (potential) branch divergence @  PC=0xe38 (_1.ptx:710) @%p4 bra $Lt_8_8194;
GPGPU-Sim PTX:    immediate post dominator      @  PC=0xe88 (_1.ptx:723) mov.s32 %r24, %r5;
GPGPU-Sim PTX:  6 (potential) branch divergence @  PC=0xea0 (_1.ptx:726) @%p5 bra $Lt_8_8706;
GPGPU-Sim PTX:    immediate post dominator      @  PC=0xfa0 (_1.ptx:769) ret;
GPGPU-Sim PTX:  7 (potential) branch divergence @  PC=0xec8 (_1.ptx:735) @%p6 bra $Lt_8_9474;
GPGPU-Sim PTX:    immediate post dominator      @  PC=0xf88 (_1.ptx:764) mul.lo.s32 %r26, %r26, 2;
GPGPU-Sim PTX:  8 (potential) branch divergence @  PC=0xf98 (_1.ptx:766) @%p7 bra $Lt_8_9218;
GPGPU-Sim PTX:    immediate post dominator      @  PC=0xfa0 (_1.ptx:769) ret;
GPGPU-Sim PTX: ... end of reconvergence points for _Z12prescanBlockILb0EEvPfiS0_
GPGPU-Sim PTX: ... done pre-decoding instructions for '_Z12prescanBlockILb0EEvPfiS0_'.
GPGPU-Sim PTX: instruction assembly for function '_Z16clearLastElementILb0EEvPfS0_i'...   done.
GPGPU-Sim PTX: finding reconvergence points for '_Z16clearLastElementILb0EEvPfS0_i'...
GPGPU-Sim PTX: Finding dominators for '_Z16clearLastElementILb0EEvPfS0_i'...
GPGPU-Sim PTX: Finding immediate dominators for '_Z16clearLastElementILb0EEvPfS0_i'...
GPGPU-Sim PTX: Finding postdominators for '_Z16clearLastElementILb0EEvPfS0_i'...
GPGPU-Sim PTX: Finding immediate postdominators for '_Z16clearLastElementILb0EEvPfS0_i'...
GPGPU-Sim PTX: pre-decoding instructions for '_Z16clearLastElementILb0EEvPfS0_i'...
GPGPU-Sim PTX: reconvergence points for _Z16clearLastElementILb0EEvPfS0_i...
GPGPU-Sim PTX:  1 (potential) branch divergence @  PC=0xfd0 (_1.ptx:786) @%p1 bra $Lt_9_2050;
GPGPU-Sim PTX:    immediate post dominator      @  PC=0x1028 (_1.ptx:800) ret;
GPGPU-Sim PTX: ... end of reconvergence points for _Z16clearLastElementILb0EEvPfS0_i
GPGPU-Sim PTX: ... done pre-decoding instructions for '_Z16clearLastElementILb0EEvPfS0_i'.
GPGPU-Sim PTX: allocating shared region for "__cuda_local_var_42436_35_non_const_uni" from 0x0 to 0x4 (shared memory space)
GPGPU-Sim PTX: instruction assembly for function '_Z10uniformAddPfS_iii'...   done.
GPGPU-Sim PTX: finding reconvergence points for '_Z10uniformAddPfS_iii'...
GPGPU-Sim PTX: Finding dominators for '_Z10uniformAddPfS_iii'...
GPGPU-Sim PTX: Finding immediate dominators for '_Z10uniformAddPfS_iii'...
GPGPU-Sim PTX: Finding postdominators for '_Z10uniformAddPfS_iii'...
GPGPU-Sim PTX: Finding immediate postdominators for '_Z10uniformAddPfS_iii'...
GPGPU-Sim PTX: pre-decoding instructions for '_Z10uniformAddPfS_iii'...
GPGPU-Sim PTX: reconvergence points for _Z10uniformAddPfS_iii...
GPGPU-Sim PTX:  1 (potential) branch divergence @  PC=0x1048 (_1.ptx:821) @%p1 bra $Lt_10_1794;
GPGPU-Sim PTX:    immediate post dominator      @  PC=0x1098 (_1.ptx:834) bar.sync 0;
GPGPU-Sim PTX: ... end of reconvergence points for _Z10uniformAddPfS_iii
GPGPU-Sim PTX: ... done pre-decoding instructions for '_Z10uniformAddPfS_iii'.
GPGPU-Sim PTX: allocating shared region for "s_data" from 0x0 to 0x0 (shared memory space)
GPGPU-Sim PTX: instruction assembly for function '_Z7prescanILb1ELb0EEvPfPKfS0_iii'...   done.
GPGPU-Sim PTX: finding reconvergence points for '_Z7prescanILb1ELb0EEvPfPKfS0_iii'...
GPGPU-Sim PTX: Finding dominators for '_Z7prescanILb1ELb0EEvPfPKfS0_iii'...
GPGPU-Sim PTX: Finding immediate dominators for '_Z7prescanILb1ELb0EEvPfPKfS0_iii'...
GPGPU-Sim PTX: Finding postdominators for '_Z7prescanILb1ELb0EEvPfPKfS0_iii'...
GPGPU-Sim PTX: Finding immediate postdominators for '_Z7prescanILb1ELb0EEvPfPKfS0_iii'...
GPGPU-Sim PTX: pre-decoding instructions for '_Z7prescanILb1ELb0EEvPfPKfS0_iii'...
GPGPU-Sim PTX: reconvergence points for _Z7prescanILb1ELb0EEvPfPKfS0_iii...
GPGPU-Sim PTX:  1 (potential) branch divergence @  PC=0x1198 (_1.ptx:888) @%p1 bra $Lt_11_10242;
GPGPU-Sim PTX:    immediate post dominator      @  PC=0x11c8 (_1.ptx:896) mov.u64 %rd1, s_data;
GPGPU-Sim PTX:  2 (potential) branch divergence @  PC=0x11b8 (_1.ptx:892) bra.uni $Lt_11_9986;
GPGPU-Sim PTX:    immediate post dominator      @  PC=0x11c8 (_1.ptx:896) mov.u64 %rd1, s_data;
GPGPU-Sim PTX:  3 (potential) branch divergence @  PC=0x12c0 (_1.ptx:930) @%p2 bra $Lt_11_14082;
GPGPU-Sim PTX:    immediate post dominator      @  PC=0x13c8 (_1.ptx:972) mov.u32 %r32, 0;
GPGPU-Sim PTX:  4 (potential) branch divergence @  PC=0x12e0 (_1.ptx:936) @%p3 bra $Lt_11_11266;
GPGPU-Sim PTX:    immediate post dominator      @  PC=0x1390 (_1.ptx:961) mul.lo.u32 %r19, %r19, 2;
GPGPU-Sim PTX:  5 (potential) branch divergence @  PC=0x13b0 (_1.ptx:966) @%p4 bra $Lt_11_11010;
GPGPU-Sim PTX:    immediate post dominator      @  PC=0x13b8 (_1.ptx:967) bra.uni $Lt_11_10498;
GPGPU-Sim PTX:  6 (potential) branch divergence @  PC=0x13b8 (_1.ptx:967) bra.uni $Lt_11_10498;
GPGPU-Sim PTX:    immediate post dominator      @  PC=0x13c8 (_1.ptx:972) mov.u32 %r32, 0;
GPGPU-Sim PTX:  7 (potential) branch divergence @  PC=0x13d8 (_1.ptx:974) @%p5 bra $Lt_11_12034;
GPGPU-Sim PTX:    immediate post dominator      @  PC=0x1480 (_1.ptx:999) mov.s32 %r41, %r19;
GPGPU-Sim PTX:  8 (potential) branch divergence @  PC=0x1498 (_1.ptx:1002) @%p7 bra $Lt_11_12546;
GPGPU-Sim PTX:    immediate post dominator      @  PC=0x1598 (_1.ptx:1045) bar.sync 0;
GPGPU-Sim PTX:  9 (potential) branch divergence @  PC=0x14c0 (_1.ptx:1011) @%p8 bra $Lt_11_13314;
GPGPU-Sim PTX:    immediate post dominator      @  PC=0x1580 (_1.ptx:1040) mul.lo.s32 %r43, %r43, 2;
GPGPU-Sim PTX: 10 (potential) branch divergence @  PC=0x1590 (_1.ptx:1042) @%p9 bra $Lt_11_13058;
GPGPU-Sim PTX:    immediate post dominator      @  PC=0x1598 (_1.ptx:1045) bar.sync 0;
GPGPU-Sim PTX: ... end of reconvergence points for _Z7prescanILb1ELb0EEvPfPKfS0_iii
GPGPU-Sim PTX: ... done pre-decoding instructions for '_Z7prescanILb1ELb0EEvPfPKfS0_iii'.
GPGPU-Sim PTX: instruction assembly for function '_Z7prescanILb1ELb1EEvPfPKfS0_iii'...   done.
GPGPU-Sim PTX: finding reconvergence points for '_Z7prescanILb1ELb1EEvPfPKfS0_iii'...
GPGPU-Sim PTX: Finding dominators for '_Z7prescanILb1ELb1EEvPfPKfS0_iii'...
GPGPU-Sim PTX: Finding immediate dominators for '_Z7prescanILb1ELb1EEvPfPKfS0_iii'...
GPGPU-Sim PTX: Finding postdominators for '_Z7prescanILb1ELb1EEvPfPKfS0_iii'...
GPGPU-Sim PTX: Finding immediate postdominators for '_Z7prescanILb1ELb1EEvPfPKfS0_iii'...
GPGPU-Sim PTX: pre-decoding instructions for '_Z7prescanILb1ELb1EEvPfPKfS0_iii'...
GPGPU-Sim PTX: reconvergence points for _Z7prescanILb1ELb1EEvPfPKfS0_iii...
GPGPU-Sim PTX:  1 (potential) branch divergence @  PC=0x1600 (_1.ptx:1079) @%p1 bra $Lt_12_10242;
GPGPU-Sim PTX:    immediate post dominator      @  PC=0x1630 (_1.ptx:1087) mov.u64 %rd1, s_data;
GPGPU-Sim PTX:  2 (potential) branch divergence @  PC=0x1620 (_1.ptx:1083) bra.uni $Lt_12_9986;
GPGPU-Sim PTX:    immediate post dominator      @  PC=0x1630 (_1.ptx:1087) mov.u64 %rd1, s_data;
GPGPU-Sim PTX:  3 (potential) branch divergence @  PC=0x16c0 (_1.ptx:1106) @!%p2 bra $Lt_12_10754;
GPGPU-Sim PTX:    immediate post dominator      @  PC=0x1700 (_1.ptx:1117) shr.s32 %r15, %r12, 4;
GPGPU-Sim PTX:  4 (potential) branch divergence @  PC=0x16f0 (_1.ptx:1113) bra.uni $Lt_12_10498;
GPGPU-Sim PTX:    immediate post dominator      @  PC=0x1700 (_1.ptx:1117) shr.s32 %r15, %r12, 4;
GPGPU-Sim PTX:  5 (potential) branch divergence @  PC=0x1750 (_1.ptx:1128) @%p3 bra $Lt_12_15106;
GPGPU-Sim PTX:    immediate post dominator      @  PC=0x1858 (_1.ptx:1170) mov.u32 %r33, 0;
GPGPU-Sim PTX:  6 (potential) branch divergence @  PC=0x1770 (_1.ptx:1134) @%p4 bra $Lt_12_11778;
GPGPU-Sim PTX:    immediate post dominator      @  PC=0x1820 (_1.ptx:1159) mul.lo.u32 %r20, %r20, 2;
GPGPU-Sim PTX:  7 (potential) branch divergence @  PC=0x1840 (_1.ptx:1164) @%p5 bra $Lt_12_11522;
GPGPU-Sim PTX:    immediate post dominator      @  PC=0x1848 (_1.ptx:1165) bra.uni $Lt_12_11010;
GPGPU-Sim PTX:  8 (potential) branch divergence @  PC=0x1848 (_1.ptx:1165) bra.uni $Lt_12_11010;
GPGPU-Sim PTX:    immediate post dominator      @  PC=0x1858 (_1.ptx:1170) mov.u32 %r33, 0;
GPGPU-Sim PTX:  9 (potential) branch divergence @  PC=0x1868 (_1.ptx:1172) @%p6 bra $Lt_12_12546;
GPGPU-Sim PTX:    immediate post dominator      @  PC=0x1910 (_1.ptx:1197) mov.s32 %r42, %r20;
GPGPU-Sim PTX: 10 (potential) branch divergence @  PC=0x1928 (_1.ptx:1200) @%p8 bra $Lt_12_13058;
GPGPU-Sim PTX:    immediate post dominator      @  PC=0x1a28 (_1.ptx:1243) bar.sync 0;
GPGPU-Sim PTX: 11 (potential) branch divergence @  PC=0x1950 (_1.ptx:1209) @%p9 bra $Lt_12_13826;
GPGPU-Sim PTX:    immediate post dominator      @  PC=0x1a10 (_1.ptx:1238) mul.lo.s32 %r44, %r44, 2;
GPGPU-Sim PTX: 12 (potential) branch divergence @  PC=0x1a20 (_1.ptx:1240) @%p10 bra $Lt_12_13570;
GPGPU-Sim PTX:    immediate post dominator      @  PC=0x1a28 (_1.ptx:1243) bar.sync 0;
GPGPU-Sim PTX: 13 (potential) branch divergence @  PC=0x1a50 (_1.ptx:1249) @!%p2 bra $Lt_12_14594;
GPGPU-Sim PTX:    immediate post dominator      @  PC=0x1a88 (_1.ptx:1259) exit;
GPGPU-Sim PTX: ... end of reconvergence points for _Z7prescanILb1ELb1EEvPfPKfS0_iii
GPGPU-Sim PTX: ... done pre-decoding instructions for '_Z7prescanILb1ELb1EEvPfPKfS0_iii'.
GPGPU-Sim PTX: instruction assembly for function '_Z7prescanILb0ELb0EEvPfPKfS0_iii'...   done.
GPGPU-Sim PTX: finding reconvergence points for '_Z7prescanILb0ELb0EEvPfPKfS0_iii'...
GPGPU-Sim PTX: Finding dominators for '_Z7prescanILb0ELb0EEvPfPKfS0_iii'...
GPGPU-Sim PTX: Finding immediate dominators for '_Z7prescanILb0ELb0EEvPfPKfS0_iii'...
GPGPU-Sim PTX: Finding postdominators for '_Z7prescanILb0ELb0EEvPfPKfS0_iii'...
GPGPU-Sim PTX: Finding immediate postdominators for '_Z7prescanILb0ELb0EEvPfPKfS0_iii'...
GPGPU-Sim PTX: pre-decoding instructions for '_Z7prescanILb0ELb0EEvPfPKfS0_iii'...
GPGPU-Sim PTX: reconvergence points for _Z7prescanILb0ELb0EEvPfPKfS0_iii...
GPGPU-Sim PTX:  1 (potential) branch divergence @  PC=0x1ab0 (_1.ptx:1282) @%p1 bra $Lt_13_10754;
GPGPU-Sim PTX:    immediate post dominator      @  PC=0x1ae0 (_1.ptx:1290) mov.u64 %rd1, s_data;
GPGPU-Sim PTX:  2 (potential) branch divergence @  PC=0x1ad0 (_1.ptx:1286) bra.uni $Lt_13_10498;
GPGPU-Sim PTX:    immediate post dominator      @  PC=0x1ae0 (_1.ptx:1290) mov.u64 %rd1, s_data;
GPGPU-Sim PTX:  3 (potential) branch divergence @  PC=0x1bd8 (_1.ptx:1324) @%p2 bra $Lt_13_14594;
GPGPU-Sim PTX:    immediate post dominator      @  PC=0x1ce0 (_1.ptx:1366) mov.u32 %r32, 0;
GPGPU-Sim PTX:  4 (potential) branch divergence @  PC=0x1bf8 (_1.ptx:1330) @%p3 bra $Lt_13_11778;
GPGPU-Sim PTX:    immediate post dominator      @  PC=0x1ca8 (_1.ptx:1355) mul.lo.u32 %r19, %r19, 2;
GPGPU-Sim PTX:  5 (potential) branch divergence @  PC=0x1cc8 (_1.ptx:1360) @%p4 bra $Lt_13_11522;
GPGPU-Sim PTX:    immediate post dominator      @  PC=0x1cd0 (_1.ptx:1361) bra.uni $Lt_13_11010;
GPGPU-Sim PTX:  6 (potential) branch divergence @  PC=0x1cd0 (_1.ptx:1361) bra.uni $Lt_13_11010;
GPGPU-Sim PTX:    immediate post dominator      @  PC=0x1ce0 (_1.ptx:1366) mov.u32 %r32, 0;
GPGPU-Sim PTX:  7 (potential) branch divergence @  PC=0x1cf0 (_1.ptx:1368) @%p5 bra $Lt_13_12546;
GPGPU-Sim PTX:    immediate post dominator      @  PC=0x1d40 (_1.ptx:1381) mov.s32 %r37, %r19;
GPGPU-Sim PTX:  8 (potential) branch divergence @  PC=0x1d58 (_1.ptx:1384) @%p6 bra $Lt_13_13058;
GPGPU-Sim PTX:    immediate post dominator      @  PC=0x1e58 (_1.ptx:1427) bar.sync 0;
GPGPU-Sim PTX:  9 (potential) branch divergence @  PC=0x1d80 (_1.ptx:1393) @%p7 bra $Lt_13_13826;
GPGPU-Sim PTX:    immediate post dominator      @  PC=0x1e40 (_1.ptx:1422) mul.lo.s32 %r39, %r39, 2;
GPGPU-Sim PTX: 10 (potential) branch divergence @  PC=0x1e50 (_1.ptx:1424) @%p8 bra $Lt_13_13570;
GPGPU-Sim PTX:    immediate post dominator      @  PC=0x1e58 (_1.ptx:1427) bar.sync 0;
GPGPU-Sim PTX: ... end of reconvergence points for _Z7prescanILb0ELb0EEvPfPKfS0_iii
GPGPU-Sim PTX: ... done pre-decoding instructions for '_Z7prescanILb0ELb0EEvPfPKfS0_iii'.
GPGPU-Sim PTX: instruction assembly for function '_Z7prescanILb0ELb1EEvPfPKfS0_iii'...   done.
GPGPU-Sim PTX: finding reconvergence points for '_Z7prescanILb0ELb1EEvPfPKfS0_iii'...
GPGPU-Sim PTX: Finding dominators for '_Z7prescanILb0ELb1EEvPfPKfS0_iii'...
GPGPU-Sim PTX: Finding immediate dominators for '_Z7prescanILb0ELb1EEvPfPKfS0_iii'...
GPGPU-Sim PTX: Finding postdominators for '_Z7prescanILb0ELb1EEvPfPKfS0_iii'...
GPGPU-Sim PTX: Finding immediate postdominators for '_Z7prescanILb0ELb1EEvPfPKfS0_iii'...
GPGPU-Sim PTX: pre-decoding instructions for '_Z7prescanILb0ELb1EEvPfPKfS0_iii'...
GPGPU-Sim PTX: reconvergence points for _Z7prescanILb0ELb1EEvPfPKfS0_iii...
GPGPU-Sim PTX:  1 (potential) branch divergence @  PC=0x1ec0 (_1.ptx:1461) @%p1 bra $Lt_14_10754;
GPGPU-Sim PTX:    immediate post dominator      @  PC=0x1ef0 (_1.ptx:1469) mov.u64 %rd1, s_data;
GPGPU-Sim PTX:  2 (potential) branch divergence @  PC=0x1ee0 (_1.ptx:1465) bra.uni $Lt_14_10498;
GPGPU-Sim PTX:    immediate post dominator      @  PC=0x1ef0 (_1.ptx:1469) mov.u64 %rd1, s_data;
GPGPU-Sim PTX:  3 (potential) branch divergence @  PC=0x1f80 (_1.ptx:1488) @!%p2 bra $Lt_14_11266;
GPGPU-Sim PTX:    immediate post dominator      @  PC=0x1fc0 (_1.ptx:1499) shr.s32 %r15, %r12, 4;
GPGPU-Sim PTX:  4 (potential) branch divergence @  PC=0x1fb0 (_1.ptx:1495) bra.uni $Lt_14_11010;
GPGPU-Sim PTX:    immediate post dominator      @  PC=0x1fc0 (_1.ptx:1499) shr.s32 %r15, %r12, 4;
GPGPU-Sim PTX:  5 (potential) branch divergence @  PC=0x2010 (_1.ptx:1510) @%p3 bra $Lt_14_15618;
GPGPU-Sim PTX:    immediate post dominator      @  PC=0x2118 (_1.ptx:1552) mov.u32 %r33, 0;
GPGPU-Sim PTX:  6 (potential) branch divergence @  PC=0x2030 (_1.ptx:1516) @%p4 bra $Lt_14_12290;
GPGPU-Sim PTX:    immediate post dominator      @  PC=0x20e0 (_1.ptx:1541) mul.lo.u32 %r20, %r20, 2;
GPGPU-Sim PTX:  7 (potential) branch divergence @  PC=0x2100 (_1.ptx:1546) @%p5 bra $Lt_14_12034;
GPGPU-Sim PTX:    immediate post dominator      @  PC=0x2108 (_1.ptx:1547) bra.uni $Lt_14_11522;
GPGPU-Sim PTX:  8 (potential) branch divergence @  PC=0x2108 (_1.ptx:1547) bra.uni $Lt_14_11522;
GPGPU-Sim PTX:    immediate post dominator      @  PC=0x2118 (_1.ptx:1552) mov.u32 %r33, 0;
GPGPU-Sim PTX:  9 (potential) branch divergence @  PC=0x2128 (_1.ptx:1554) @%p6 bra $Lt_14_13058;
GPGPU-Sim PTX:    immediate post dominator      @  PC=0x2178 (_1.ptx:1567) mov.s32 %r38, %r20;
GPGPU-Sim PTX: 10 (potential) branch divergence @  PC=0x2190 (_1.ptx:1570) @%p7 bra $Lt_14_13570;
GPGPU-Sim PTX:    immediate post dominator      @  PC=0x2290 (_1.ptx:1613) bar.sync 0;
GPGPU-Sim PTX: 11 (potential) branch divergence @  PC=0x21b8 (_1.ptx:1579) @%p8 bra $Lt_14_14338;
GPGPU-Sim PTX:    immediate post dominator      @  PC=0x2278 (_1.ptx:1608) mul.lo.s32 %r40, %r40, 2;
GPGPU-Sim PTX: 12 (potential) branch divergence @  PC=0x2288 (_1.ptx:1610) @%p9 bra $Lt_14_14082;
GPGPU-Sim PTX:    immediate post dominator      @  PC=0x2290 (_1.ptx:1613) bar.sync 0;
GPGPU-Sim PTX: 13 (potential) branch divergence @  PC=0x22b8 (_1.ptx:1619) @!%p2 bra $Lt_14_15106;
GPGPU-Sim PTX:    immediate post dominator      @  PC=0x22f0 (_1.ptx:1629) exit;
GPGPU-Sim PTX: ... end of reconvergence points for _Z7prescanILb0ELb1EEvPfPKfS0_iii
GPGPU-Sim PTX: ... done pre-decoding instructions for '_Z7prescanILb0ELb1EEvPfPKfS0_iii'.
GPGPU-Sim PTX: instruction assembly for function '_ZSt5frexpfPi'...   done.
GPGPU-Sim PTX: finding reconvergence points for '_ZSt5frexpfPi'...
GPGPU-Sim PTX: Finding dominators for '_ZSt5frexpfPi'...
GPGPU-Sim PTX: Finding immediate dominators for '_ZSt5frexpfPi'...
GPGPU-Sim PTX: Finding postdominators for '_ZSt5frexpfPi'...
GPGPU-Sim PTX: Finding immediate postdominators for '_ZSt5frexpfPi'...
GPGPU-Sim PTX: pre-decoding instructions for '_ZSt5frexpfPi'...
GPGPU-Sim PTX: reconvergence points for _ZSt5frexpfPi...
GPGPU-Sim PTX:  1 (potential) branch divergence @  PC=0x2338 (_1.ptx:1650) @!%p1 bra $Lt_15_2306;
GPGPU-Sim PTX:    immediate post dominator      @  PC=0x2368 (_1.ptx:1660) mov.b32 %r2, %f3;
GPGPU-Sim PTX:  2 (potential) branch divergence @  PC=0x2358 (_1.ptx:1655) bra.uni $Lt_15_2050;
GPGPU-Sim PTX:    immediate post dominator      @  PC=0x2368 (_1.ptx:1660) mov.b32 %r2, %f3;
GPGPU-Sim PTX:  3 (potential) branch divergence @  PC=0x23c8 (_1.ptx:1672) @%p2 bra $Lt_15_2818;
GPGPU-Sim PTX:    immediate post dominator      @  PC=0x2410 (_1.ptx:1687) st.s32 [%rd2+0], %r12;
GPGPU-Sim PTX:  4 (potential) branch divergence @  PC=0x23e0 (_1.ptx:1676) bra.uni $Lt_15_2562;
GPGPU-Sim PTX:    immediate post dominator      @  PC=0x2410 (_1.ptx:1687) st.s32 [%rd2+0], %r12;
GPGPU-Sim PTX: ... end of reconvergence points for _ZSt5frexpfPi
GPGPU-Sim PTX: ... done pre-decoding instructions for '_ZSt5frexpfPi'.
GPGPU-Sim PTX: finished parsing EMBEDDED .ptx file _1.ptx
Adding _cuobjdump_1.ptx with cubin handle 1
GPGPU-Sim PTX: extracting embedded .ptx to temporary file "_ptx_sjxUkN"
Running: cat _ptx_sjxUkN | sed 's/.version 1.5/.version 1.4/' | sed 's/, texmode_independent//' | sed 's/\(\.extern \.const\[1\] .b8 \w\+\)\[\]/\1\[1\]/' | sed 's/const\[.\]/const\[0\]/g' > _ptx2_v4x15L
GPGPU-Sim PTX: generating ptxinfo using "$CUDA_INSTALL_PATH/bin/ptxas --gpu-name=sm_20 -v _ptx2_v4x15L --output-file  /dev/null 2> _ptx_sjxUkNinfo"
GPGPU-Sim PTX: Kernel '_Z7prescanILb0ELb1EEvPfPKfS0_iii' : regs=13, lmem=0, smem=0, cmem=68
GPGPU-Sim PTX: Kernel '_Z7prescanILb0ELb0EEvPfPKfS0_iii' : regs=15, lmem=0, smem=0, cmem=68
GPGPU-Sim PTX: Kernel '_Z7prescanILb1ELb1EEvPfPKfS0_iii' : regs=13, lmem=0, smem=0, cmem=68
GPGPU-Sim PTX: Kernel '_Z7prescanILb1ELb0EEvPfPKfS0_iii' : regs=15, lmem=0, smem=0, cmem=68
GPGPU-Sim PTX: Kernel '_Z10uniformAddPfS_iii' : regs=10, lmem=0, smem=16, cmem=60
GPGPU-Sim PTX: removing ptxinfo using "rm -f _ptx_sjxUkN _ptx2_v4x15L _ptx_sjxUkNinfo"
GPGPU-Sim PTX: loading globals with explicit initializers... 
GPGPU-Sim PTX: finished loading globals (0 bytes total).
GPGPU-Sim PTX: loading constants with explicit initializers...  done.
GPGPU-Sim PTX: __cudaRegisterFunction _Z7prescanILb0ELb0EEvPfPKfS0_iii : hostFun 0x0x406601, fat_cubin_handle = 1
GPGPU-Sim PTX: __cudaRegisterFunction _Z7prescanILb1ELb1EEvPfPKfS0_iii : hostFun 0x0x4065b1, fat_cubin_handle = 1
GPGPU-Sim PTX: __cudaRegisterFunction _Z7prescanILb1ELb0EEvPfPKfS0_iii : hostFun 0x0x406561, fat_cubin_handle = 1
GPGPU-Sim PTX: __cudaRegisterFunction _Z10uniformAddPfS_iii : hostFun 0x0x4056fe, fat_cubin_handle = 1
Running parallel prefix sum (prescan) of 1000000 elements
This version is work efficient (O(n) adds)
and has very few shared memory bank conflicts


GPGPU-Sim PTX: cudaLaunch for 0x0x406561 (mode=performance simulation) on stream 0
GPGPU-Sim PTX: pushing kernel '_Z7prescanILb1ELb0EEvPfPKfS0_iii' to stream 0, gridDim= (1953,1,1) blockDim = (256,1,1) 
kernel '_Z7prescanILb1ELb0EEvPfPKfS0_iii' transfer to GPU hardware scheduler
GPGPU-Sim uArch: Shader 1 bind to kernel 1 '_Z7prescanILb1ELb0EEvPfPKfS0_iii'
GPGPU-Sim uArch: CTA/core = 6, limited by: threads
GPGPU-Sim uArch: core:  1, cta: 0 initialized @(1,0)
GPGPU-Sim uArch: Shader 2 bind to kernel 1 '_Z7prescanILb1ELb0EEvPfPKfS0_iii'
GPGPU-Sim uArch: core:  2, cta: 0 initialized @(1,0)
GPGPU-Sim uArch: Shader 3 bind to kernel 1 '_Z7prescanILb1ELb0EEvPfPKfS0_iii'
GPGPU-Sim uArch: core:  3, cta: 0 initialized @(1,0)
GPGPU-Sim uArch: Shader 4 bind to kernel 1 '_Z7prescanILb1ELb0EEvPfPKfS0_iii'
GPGPU-Sim uArch: core:  4, cta: 0 initialized @(1,0)
GPGPU-Sim uArch: Shader 5 bind to kernel 1 '_Z7prescanILb1ELb0EEvPfPKfS0_iii'
GPGPU-Sim uArch: core:  5, cta: 0 initialized @(1,0)
GPGPU-Sim uArch: Shader 6 bind to kernel 1 '_Z7prescanILb1ELb0EEvPfPKfS0_iii'
GPGPU-Sim uArch: core:  6, cta: 0 initialized @(1,0)
GPGPU-Sim uArch: Shader 7 bind to kernel 1 '_Z7prescanILb1ELb0EEvPfPKfS0_iii'
GPGPU-Sim uArch: core:  7, cta: 0 initialized @(1,0)
GPGPU-Sim uArch: Shader 8 bind to kernel 1 '_Z7prescanILb1ELb0EEvPfPKfS0_iii'
GPGPU-Sim uArch: core:  8, cta: 0 initialized @(1,0)
GPGPU-Sim uArch: Shader 9 bind to kernel 1 '_Z7prescanILb1ELb0EEvPfPKfS0_iii'
GPGPU-Sim uArch: core:  9, cta: 0 initialized @(1,0)
GPGPU-Sim uArch: Shader 10 bind to kernel 1 '_Z7prescanILb1ELb0EEvPfPKfS0_iii'
GPGPU-Sim uArch: core: 10, cta: 0 initialized @(1,0)
GPGPU-Sim uArch: Shader 11 bind to kernel 1 '_Z7prescanILb1ELb0EEvPfPKfS0_iii'
GPGPU-Sim uArch: core: 11, cta: 0 initialized @(1,0)
GPGPU-Sim uArch: Shader 12 bind to kernel 1 '_Z7prescanILb1ELb0EEvPfPKfS0_iii'
GPGPU-Sim uArch: core: 12, cta: 0 initialized @(1,0)
GPGPU-Sim uArch: Shader 13 bind to kernel 1 '_Z7prescanILb1ELb0EEvPfPKfS0_iii'
GPGPU-Sim uArch: core: 13, cta: 0 initialized @(1,0)
GPGPU-Sim uArch: Shader 14 bind to kernel 1 '_Z7prescanILb1ELb0EEvPfPKfS0_iii'
GPGPU-Sim uArch: core: 14, cta: 0 initialized @(1,0)
GPGPU-Sim uArch: Shader 0 bind to kernel 1 '_Z7prescanILb1ELb0EEvPfPKfS0_iii'
GPGPU-Sim uArch: core:  0, cta: 0 initialized @(1,0)
GPGPU-Sim uArch: core:  1, cta: 1 initialized @(2,0)
GPGPU-Sim uArch: core:  2, cta: 1 initialized @(2,0)
GPGPU-Sim uArch: core:  3, cta: 1 initialized @(2,0)
GPGPU-Sim uArch: core:  4, cta: 1 initialized @(2,0)
GPGPU-Sim uArch: core:  5, cta: 1 initialized @(2,0)
GPGPU-Sim uArch: core:  6, cta: 1 initialized @(2,0)
GPGPU-Sim uArch: core:  7, cta: 1 initialized @(2,0)
GPGPU-Sim uArch: core:  8, cta: 1 initialized @(2,0)
GPGPU-Sim uArch: core:  9, cta: 1 initialized @(2,0)
GPGPU-Sim uArch: core: 10, cta: 1 initialized @(2,0)
GPGPU-Sim uArch: core: 11, cta: 1 initialized @(2,0)
GPGPU-Sim uArch: core: 12, cta: 1 initialized @(2,0)
GPGPU-Sim uArch: core: 13, cta: 1 initialized @(2,0)
GPGPU-Sim uArch: core: 14, cta: 1 initialized @(2,0)
GPGPU-Sim uArch: core:  0, cta: 1 initialized @(2,0)
GPGPU-Sim uArch: core:  1, cta: 2 initialized @(3,0)
GPGPU-Sim uArch: core:  2, cta: 2 initialized @(3,0)
GPGPU-Sim uArch: core:  3, cta: 2 initialized @(3,0)
GPGPU-Sim uArch: core:  4, cta: 2 initialized @(3,0)
GPGPU-Sim uArch: core:  5, cta: 2 initialized @(3,0)
GPGPU-Sim uArch: core:  6, cta: 2 initialized @(3,0)
GPGPU-Sim uArch: core:  7, cta: 2 initialized @(3,0)
GPGPU-Sim uArch: core:  8, cta: 2 initialized @(3,0)
GPGPU-Sim uArch: core:  9, cta: 2 initialized @(3,0)
GPGPU-Sim uArch: core: 10, cta: 2 initialized @(3,0)
GPGPU-Sim uArch: core: 11, cta: 2 initialized @(3,0)
GPGPU-Sim uArch: core: 12, cta: 2 initialized @(3,0)
GPGPU-Sim uArch: core: 13, cta: 2 initialized @(3,0)
GPGPU-Sim uArch: core: 14, cta: 2 initialized @(3,0)
GPGPU-Sim uArch: core:  0, cta: 2 initialized @(3,0)
GPGPU-Sim uArch: core:  1, cta: 3 initialized @(4,0)
GPGPU-Sim uArch: core:  2, cta: 3 initialized @(4,0)
GPGPU-Sim uArch: core:  3, cta: 3 initialized @(4,0)
GPGPU-Sim uArch: core:  4, cta: 3 initialized @(4,0)
GPGPU-Sim uArch: core:  5, cta: 3 initialized @(4,0)
GPGPU-Sim uArch: core:  6, cta: 3 initialized @(4,0)
GPGPU-Sim uArch: core:  7, cta: 3 initialized @(4,0)
GPGPU-Sim uArch: core:  8, cta: 3 initialized @(4,0)
GPGPU-Sim uArch: core:  9, cta: 3 initialized @(4,0)
GPGPU-Sim uArch: core: 10, cta: 3 initialized @(4,0)
GPGPU-Sim uArch: core: 11, cta: 3 initialized @(4,0)
GPGPU-Sim uArch: core: 12, cta: 3 initialized @(4,0)
GPGPU-Sim uArch: core: 13, cta: 3 initialized @(4,0)
GPGPU-Sim uArch: core: 14, cta: 3 initialized @(4,0)
GPGPU-Sim uArch: core:  0, cta: 3 initialized @(4,0)
GPGPU-Sim uArch: core:  1, cta: 4 initialized @(5,0)
GPGPU-Sim uArch: core:  2, cta: 4 initialized @(5,0)
GPGPU-Sim uArch: core:  3, cta: 4 initialized @(5,0)
GPGPU-Sim uArch: core:  4, cta: 4 initialized @(5,0)
GPGPU-Sim uArch: core:  5, cta: 4 initialized @(5,0)
GPGPU-Sim uArch: core:  6, cta: 4 initialized @(5,0)
GPGPU-Sim uArch: core:  7, cta: 4 initialized @(5,0)
GPGPU-Sim uArch: core:  8, cta: 4 initialized @(5,0)
GPGPU-Sim uArch: core:  9, cta: 4 initialized @(5,0)
GPGPU-Sim uArch: core: 10, cta: 4 initialized @(5,0)
GPGPU-Sim uArch: core: 11, cta: 4 initialized @(5,0)
GPGPU-Sim uArch: core: 12, cta: 4 initialized @(5,0)
GPGPU-Sim uArch: core: 13, cta: 4 initialized @(5,0)
GPGPU-Sim uArch: core: 14, cta: 4 initialized @(5,0)
GPGPU-Sim uArch: core:  0, cta: 4 initialized @(5,0)
GPGPU-Sim uArch: core:  1, cta: 5 initialized @(6,0)
GPGPU-Sim uArch: core:  2, cta: 5 initialized @(6,0)
GPGPU-Sim uArch: core:  3, cta: 5 initialized @(6,0)
GPGPU-Sim uArch: core:  4, cta: 5 initialized @(6,0)
GPGPU-Sim uArch: core:  5, cta: 5 initialized @(6,0)
GPGPU-Sim uArch: core:  6, cta: 5 initialized @(6,0)
GPGPU-Sim uArch: core:  7, cta: 5 initialized @(6,0)
GPGPU-Sim uArch: core:  8, cta: 5 initialized @(6,0)
GPGPU-Sim uArch: core:  9, cta: 5 initialized @(6,0)
GPGPU-Sim uArch: core: 10, cta: 5 initialized @(6,0)
GPGPU-Sim uArch: core: 11, cta: 5 initialized @(6,0)
GPGPU-Sim uArch: core: 12, cta: 5 initialized @(6,0)
GPGPU-Sim uArch: core: 13, cta: 5 initialized @(6,0)
GPGPU-Sim uArch: core: 14, cta: 5 initialized @(6,0)
GPGPU-Sim uArch: core:  0, cta: 5 initialized @(6,0)
GPGPU-Sim uArch: cycles simulated: 500  inst.: 7680 (ipc=15.4) sim_rate=1280 (inst/sec) elapsed = 0:0:00:06 / Tue Mar 22 12:49:10 2016
GPGPU-Sim PTX: 100000 instructions simulated : ctaid=(22,0,0) tid=(127,0,0)
GPGPU-Sim uArch: cycles simulated: 1000  inst.: 133600 (ipc=133.6) sim_rate=16700 (inst/sec) elapsed = 0:0:00:08 / Tue Mar 22 12:49:12 2016
GPGPU-Sim PTX: 200000 instructions simulated : ctaid=(7,0,0) tid=(31,0,0)
GPGPU-Sim uArch: cycles simulated: 1500  inst.: 226336 (ipc=150.9) sim_rate=22633 (inst/sec) elapsed = 0:0:00:10 / Tue Mar 22 12:49:14 2016
GPGPU-Sim PTX: 300000 instructions simulated : ctaid=(35,0,0) tid=(191,0,0)
GPGPU-Sim PTX: 400000 instructions simulated : ctaid=(27,0,0) tid=(63,0,0)
GPGPU-Sim PTX: 500000 instructions simulated : ctaid=(13,0,0) tid=(191,0,0)
GPGPU-Sim uArch: cycles simulated: 2500  inst.: 508800 (ipc=203.5) sim_rate=46254 (inst/sec) elapsed = 0:0:00:11 / Tue Mar 22 12:49:15 2016
GPGPU-Sim PTX: 600000 instructions simulated : ctaid=(24,0,0) tid=(95,0,0)
GPGPU-Sim PTX: 700000 instructions simulated : ctaid=(14,0,0) tid=(95,0,0)
GPGPU-Sim PTX: 800000 instructions simulated : ctaid=(46,0,0) tid=(31,0,0)
GPGPU-Sim PTX: 900000 instructions simulated : ctaid=(55,0,0) tid=(31,0,0)
GPGPU-Sim PTX: 1000000 instructions simulated : ctaid=(36,0,0) tid=(191,0,0)
GPGPU-Sim PTX: 1100000 instructions simulated : ctaid=(49,0,0) tid=(31,0,0)
GPGPU-Sim uArch: cycles simulated: 3500  inst.: 1094608 (ipc=312.7) sim_rate=91217 (inst/sec) elapsed = 0:0:00:12 / Tue Mar 22 12:49:16 2016
GPGPU-Sim PTX: 1200000 instructions simulated : ctaid=(5,0,0) tid=(15,0,0)
GPGPU-Sim PTX: 1300000 instructions simulated : ctaid=(10,0,0) tid=(247,0,0)
GPGPU-Sim PTX: 1400000 instructions simulated : ctaid=(4,0,0) tid=(215,0,0)
GPGPU-Sim PTX: 1500000 instructions simulated : ctaid=(48,0,0) tid=(139,0,0)
GPGPU-Sim uArch: cycles simulated: 4000  inst.: 1453668 (ipc=363.4) sim_rate=111820 (inst/sec) elapsed = 0:0:00:13 / Tue Mar 22 12:49:17 2016
GPGPU-Sim PTX: 1600000 instructions simulated : ctaid=(6,0,0) tid=(181,0,0)
GPGPU-Sim PTX: 1700000 instructions simulated : ctaid=(62,0,0) tid=(35,0,0)
GPGPU-Sim PTX: 1800000 instructions simulated : ctaid=(29,0,0) tid=(35,0,0)
GPGPU-Sim uArch: cycles simulated: 4500  inst.: 1779906 (ipc=395.5) sim_rate=127136 (inst/sec) elapsed = 0:0:00:14 / Tue Mar 22 12:49:18 2016
GPGPU-Sim PTX: 1900000 instructions simulated : ctaid=(17,0,0) tid=(110,0,0)
GPGPU-Sim PTX: 2000000 instructions simulated : ctaid=(35,0,0) tid=(63,0,0)
GPGPU-Sim PTX: 2100000 instructions simulated : ctaid=(29,0,0) tid=(77,0,0)
GPGPU-Sim PTX: 2200000 instructions simulated : ctaid=(77,0,0) tid=(162,0,0)
GPGPU-Sim uArch: cycles simulated: 5500  inst.: 2147398 (ipc=390.4) sim_rate=143159 (inst/sec) elapsed = 0:0:00:15 / Tue Mar 22 12:49:19 2016
GPGPU-Sim PTX: 2300000 instructions simulated : ctaid=(23,0,0) tid=(85,0,0)
GPGPU-Sim PTX: 2400000 instructions simulated : ctaid=(45,0,0) tid=(231,0,0)
GPGPU-Sim PTX: 2500000 instructions simulated : ctaid=(24,0,0) tid=(147,0,0)
GPGPU-Sim uArch: cycles simulated: 6000  inst.: 2446062 (ipc=407.7) sim_rate=152878 (inst/sec) elapsed = 0:0:00:16 / Tue Mar 22 12:49:20 2016
GPGPU-Sim PTX: 2600000 instructions simulated : ctaid=(14,0,0) tid=(93,0,0)
GPGPU-Sim PTX: 2700000 instructions simulated : ctaid=(46,0,0) tid=(57,0,0)
GPGPU-Sim PTX: 2800000 instructions simulated : ctaid=(49,0,0) tid=(22,0,0)
GPGPU-Sim PTX: 2900000 instructions simulated : ctaid=(72,0,0) tid=(211,0,0)
GPGPU-Sim PTX: 3000000 instructions simulated : ctaid=(69,0,0) tid=(233,0,0)
GPGPU-Sim PTX: 3100000 instructions simulated : ctaid=(49,0,0) tid=(185,0,0)
GPGPU-Sim uArch: cycles simulated: 7000  inst.: 3074011 (ipc=439.1) sim_rate=180824 (inst/sec) elapsed = 0:0:00:17 / Tue Mar 22 12:49:21 2016
GPGPU-Sim PTX: 3200000 instructions simulated : ctaid=(22,0,0) tid=(19,0,0)
GPGPU-Sim PTX: 3300000 instructions simulated : ctaid=(58,0,0) tid=(125,0,0)
GPGPU-Sim PTX: 3400000 instructions simulated : ctaid=(28,0,0) tid=(63,0,0)
GPGPU-Sim PTX: 3500000 instructions simulated : ctaid=(9,0,0) tid=(157,0,0)
GPGPU-Sim uArch: cycles simulated: 7500  inst.: 3415153 (ipc=455.4) sim_rate=189730 (inst/sec) elapsed = 0:0:00:18 / Tue Mar 22 12:49:22 2016
GPGPU-Sim PTX: 3600000 instructions simulated : ctaid=(3,0,0) tid=(209,0,0)
GPGPU-Sim PTX: 3700000 instructions simulated : ctaid=(9,0,0) tid=(43,0,0)
GPGPU-Sim PTX: 3800000 instructions simulated : ctaid=(48,0,0) tid=(149,0,0)
GPGPU-Sim uArch: cycles simulated: 8000  inst.: 3754981 (ipc=469.4) sim_rate=197630 (inst/sec) elapsed = 0:0:00:19 / Tue Mar 22 12:49:23 2016
GPGPU-Sim PTX: 3900000 instructions simulated : ctaid=(60,0,0) tid=(212,0,0)
GPGPU-Sim uArch: Shader 3 finished CTA #0 (8041,0), 5 CTAs running
GPGPU-Sim uArch: core:  3, cta: 0 initialized @(8042,0)
GPGPU-Sim uArch: Shader 1 finished CTA #0 (8172,0), 5 CTAs running
GPGPU-Sim uArch: core:  1, cta: 0 initialized @(8173,0)
GPGPU-Sim PTX: 4000000 instructions simulated : ctaid=(91,0,0) tid=(59,0,0)
GPGPU-Sim uArch: Shader 4 finished CTA #0 (8245,0), 5 CTAs running
GPGPU-Sim uArch: core:  4, cta: 0 initialized @(8246,0)
GPGPU-Sim uArch: Shader 8 finished CTA #0 (8260,0), 5 CTAs running
GPGPU-Sim uArch: core:  8, cta: 0 initialized @(8261,0)
GPGPU-Sim uArch: Shader 0 finished CTA #0 (8324,0), 5 CTAs running
GPGPU-Sim uArch: core:  0, cta: 0 initialized @(8325,0)
GPGPU-Sim uArch: Shader 9 finished CTA #0 (8325,0), 5 CTAs running
GPGPU-Sim uArch: core:  9, cta: 0 initialized @(8326,0)
GPGPU-Sim PTX: 4100000 instructions simulated : ctaid=(49,0,0) tid=(131,0,0)
GPGPU-Sim uArch: Shader 6 finished CTA #0 (8347,0), 5 CTAs running
GPGPU-Sim uArch: core:  6, cta: 0 initialized @(8348,0)
GPGPU-Sim uArch: Shader 10 finished CTA #0 (8372,0), 5 CTAs running
GPGPU-Sim uArch: core: 10, cta: 0 initialized @(8373,0)
GPGPU-Sim uArch: Shader 2 finished CTA #0 (8375,0), 5 CTAs running
GPGPU-Sim uArch: core:  2, cta: 0 initialized @(8376,0)
GPGPU-Sim uArch: Shader 14 finished CTA #0 (8444,0), 5 CTAs running
GPGPU-Sim uArch: core: 14, cta: 0 initialized @(8445,0)
GPGPU-Sim uArch: Shader 11 finished CTA #0 (8479,0), 5 CTAs running
GPGPU-Sim uArch: core: 11, cta: 0 initialized @(8480,0)
GPGPU-Sim uArch: Shader 7 finished CTA #0 (8488,0), 5 CTAs running
GPGPU-Sim uArch: core:  7, cta: 0 initialized @(8489,0)
GPGPU-Sim PTX: 4200000 instructions simulated : ctaid=(45,0,0) tid=(18,0,0)
GPGPU-Sim uArch: Shader 13 finished CTA #0 (8599,0), 5 CTAs running
GPGPU-Sim uArch: core: 13, cta: 0 initialized @(8600,0)
GPGPU-Sim uArch: Shader 12 finished CTA #0 (8695,0), 5 CTAs running
GPGPU-Sim uArch: core: 12, cta: 0 initialized @(8696,0)
GPGPU-Sim PTX: 4300000 instructions simulated : ctaid=(38,0,0) tid=(243,0,0)
GPGPU-Sim uArch: Shader 10 finished CTA #1 (8798,0), 5 CTAs running
GPGPU-Sim uArch: core: 10, cta: 1 initialized @(8799,0)
GPGPU-Sim uArch: Shader 3 finished CTA #1 (8809,0), 5 CTAs running
GPGPU-Sim uArch: core:  3, cta: 1 initialized @(8810,0)
GPGPU-Sim uArch: Shader 11 finished CTA #1 (8852,0), 5 CTAs running
GPGPU-Sim uArch: core: 11, cta: 1 initialized @(8853,0)
GPGPU-Sim uArch: Shader 4 finished CTA #1 (8885,0), 5 CTAs running
GPGPU-Sim uArch: core:  4, cta: 1 initialized @(8886,0)
GPGPU-Sim PTX: 4400000 instructions simulated : ctaid=(80,0,0) tid=(16,0,0)
GPGPU-Sim uArch: Shader 5 finished CTA #0 (8963,0), 5 CTAs running
GPGPU-Sim uArch: core:  5, cta: 0 initialized @(8964,0)
GPGPU-Sim uArch: cycles simulated: 9000  inst.: 4315536 (ipc=479.5) sim_rate=215776 (inst/sec) elapsed = 0:0:00:20 / Tue Mar 22 12:49:24 2016
GPGPU-Sim uArch: Shader 1 finished CTA #1 (9022,0), 5 CTAs running
GPGPU-Sim uArch: core:  1, cta: 1 initialized @(9023,0)
GPGPU-Sim uArch: Shader 6 finished CTA #1 (9032,0), 5 CTAs running
GPGPU-Sim uArch: core:  6, cta: 1 initialized @(9033,0)
GPGPU-Sim uArch: Shader 2 finished CTA #1 (9044,0), 5 CTAs running
GPGPU-Sim uArch: core:  2, cta: 1 initialized @(9045,0)
GPGPU-Sim PTX: 4500000 instructions simulated : ctaid=(31,0,0) tid=(53,0,0)
GPGPU-Sim uArch: Shader 13 finished CTA #1 (9056,0), 5 CTAs running
GPGPU-Sim uArch: core: 13, cta: 1 initialized @(9057,0)
GPGPU-Sim uArch: Shader 0 finished CTA #1 (9057,0), 5 CTAs running
GPGPU-Sim uArch: core:  0, cta: 1 initialized @(9058,0)
GPGPU-Sim uArch: Shader 7 finished CTA #1 (9075,0), 5 CTAs running
GPGPU-Sim uArch: core:  7, cta: 1 initialized @(9076,0)
GPGPU-Sim uArch: Shader 9 finished CTA #1 (9092,0), 5 CTAs running
GPGPU-Sim uArch: core:  9, cta: 1 initialized @(9093,0)
GPGPU-Sim uArch: Shader 8 finished CTA #1 (9099,0), 5 CTAs running
GPGPU-Sim uArch: core:  8, cta: 1 initialized @(9100,0)
GPGPU-Sim uArch: Shader 14 finished CTA #1 (9109,0), 5 CTAs running
GPGPU-Sim uArch: core: 14, cta: 1 initialized @(9110,0)
GPGPU-Sim uArch: Shader 12 finished CTA #1 (9119,0), 5 CTAs running
GPGPU-Sim uArch: core: 12, cta: 1 initialized @(9120,0)
GPGPU-Sim uArch: Shader 5 finished CTA #1 (9128,0), 5 CTAs running
GPGPU-Sim uArch: core:  5, cta: 1 initialized @(9129,0)
GPGPU-Sim PTX: 4600000 instructions simulated : ctaid=(34,0,0) tid=(7,0,0)
GPGPU-Sim PTX: 4700000 instructions simulated : ctaid=(67,0,0) tid=(95,0,0)
GPGPU-Sim PTX: 4800000 instructions simulated : ctaid=(48,0,0) tid=(149,0,0)
GPGPU-Sim uArch: cycles simulated: 9500  inst.: 4661602 (ipc=490.7) sim_rate=221981 (inst/sec) elapsed = 0:0:00:21 / Tue Mar 22 12:49:25 2016
GPGPU-Sim PTX: 4900000 instructions simulated : ctaid=(89,0,0) tid=(175,0,0)
GPGPU-Sim uArch: Shader 2 finished CTA #2 (9701,0), 5 CTAs running
GPGPU-Sim uArch: core:  2, cta: 2 initialized @(9702,0)
GPGPU-Sim PTX: 5000000 instructions simulated : ctaid=(60,0,0) tid=(131,0,0)
GPGPU-Sim uArch: Shader 3 finished CTA #2 (9823,0), 5 CTAs running
GPGPU-Sim uArch: core:  3, cta: 2 initialized @(9824,0)
GPGPU-Sim PTX: 5100000 instructions simulated : ctaid=(51,0,0) tid=(108,0,0)
GPGPU-Sim uArch: Shader 1 finished CTA #2 (9975,0), 5 CTAs running
GPGPU-Sim uArch: core:  1, cta: 2 initialized @(9976,0)
GPGPU-Sim uArch: cycles simulated: 10000  inst.: 4962016 (ipc=496.2) sim_rate=225546 (inst/sec) elapsed = 0:0:00:22 / Tue Mar 22 12:49:26 2016
GPGPU-Sim uArch: Shader 11 finished CTA #2 (10091,0), 5 CTAs running
GPGPU-Sim uArch: core: 11, cta: 2 initialized @(10092,0)
GPGPU-Sim uArch: Shader 12 finished CTA #2 (10101,0), 5 CTAs running
GPGPU-Sim uArch: core: 12, cta: 2 initialized @(10102,0)
GPGPU-Sim PTX: 5200000 instructions simulated : ctaid=(80,0,0) tid=(134,0,0)
GPGPU-Sim uArch: Shader 6 finished CTA #2 (10167,0), 5 CTAs running
GPGPU-Sim uArch: core:  6, cta: 2 initialized @(10168,0)
GPGPU-Sim uArch: Shader 8 finished CTA #2 (10183,0), 5 CTAs running
GPGPU-Sim uArch: core:  8, cta: 2 initialized @(10184,0)
GPGPU-Sim PTX: 5300000 instructions simulated : ctaid=(72,0,0) tid=(126,0,0)
GPGPU-Sim uArch: Shader 13 finished CTA #2 (10275,0), 5 CTAs running
GPGPU-Sim uArch: core: 13, cta: 2 initialized @(10276,0)
GPGPU-Sim uArch: Shader 0 finished CTA #2 (10292,0), 5 CTAs running
GPGPU-Sim uArch: core:  0, cta: 2 initialized @(10293,0)
GPGPU-Sim uArch: Shader 4 finished CTA #2 (10306,0), 5 CTAs running
GPGPU-Sim uArch: core:  4, cta: 2 initialized @(10307,0)
GPGPU-Sim uArch: Shader 9 finished CTA #2 (10341,0), 5 CTAs running
GPGPU-Sim uArch: core:  9, cta: 2 initialized @(10342,0)
GPGPU-Sim uArch: Shader 14 finished CTA #2 (10355,0), 5 CTAs running
GPGPU-Sim uArch: core: 14, cta: 2 initialized @(10356,0)
GPGPU-Sim uArch: Shader 7 finished CTA #2 (10360,0), 5 CTAs running
GPGPU-Sim uArch: core:  7, cta: 2 initialized @(10361,0)
GPGPU-Sim uArch: Shader 5 finished CTA #2 (10362,0), 5 CTAs running
GPGPU-Sim uArch: core:  5, cta: 2 initialized @(10363,0)
GPGPU-Sim uArch: Shader 10 finished CTA #2 (10374,0), 5 CTAs running
GPGPU-Sim uArch: core: 10, cta: 2 initialized @(10375,0)
GPGPU-Sim PTX: 5400000 instructions simulated : ctaid=(54,0,0) tid=(51,0,0)
GPGPU-Sim uArch: cycles simulated: 10500  inst.: 5270356 (ipc=501.9) sim_rate=229145 (inst/sec) elapsed = 0:0:00:23 / Tue Mar 22 12:49:27 2016
GPGPU-Sim PTX: 5500000 instructions simulated : ctaid=(73,0,0) tid=(158,0,0)
GPGPU-Sim PTX: 5600000 instructions simulated : ctaid=(59,0,0) tid=(49,0,0)
GPGPU-Sim PTX: 5700000 instructions simulated : ctaid=(54,0,0) tid=(37,0,0)
GPGPU-Sim PTX: 5800000 instructions simulated : ctaid=(50,0,0) tid=(119,0,0)
GPGPU-Sim uArch: cycles simulated: 11000  inst.: 5632179 (ipc=512.0) sim_rate=234674 (inst/sec) elapsed = 0:0:00:24 / Tue Mar 22 12:49:28 2016
GPGPU-Sim uArch: Shader 0 finished CTA #3 (11088,0), 5 CTAs running
GPGPU-Sim uArch: core:  0, cta: 3 initialized @(11089,0)
GPGPU-Sim PTX: 5900000 instructions simulated : ctaid=(67,0,0) tid=(91,0,0)
GPGPU-Sim PTX: 6000000 instructions simulated : ctaid=(100,0,0) tid=(191,0,0)
GPGPU-Sim uArch: Shader 1 finished CTA #3 (11267,0), 5 CTAs running
GPGPU-Sim uArch: Shader 3 finished CTA #3 (11267,0), 5 CTAs running
GPGPU-Sim uArch: core:  1, cta: 3 initialized @(11268,0)
GPGPU-Sim uArch: core:  3, cta: 3 initialized @(11268,0)
GPGPU-Sim uArch: Shader 4 finished CTA #3 (11353,0), 5 CTAs running
GPGPU-Sim uArch: core:  4, cta: 3 initialized @(11354,0)
GPGPU-Sim uArch: Shader 2 finished CTA #3 (11359,0), 5 CTAs running
GPGPU-Sim uArch: core:  2, cta: 3 initialized @(11360,0)
GPGPU-Sim uArch: Shader 13 finished CTA #3 (11380,0), 5 CTAs running
GPGPU-Sim uArch: core: 13, cta: 3 initialized @(11381,0)
GPGPU-Sim PTX: 6100000 instructions simulated : ctaid=(105,0,0) tid=(95,0,0)
GPGPU-Sim uArch: Shader 9 finished CTA #3 (11440,0), 5 CTAs running
GPGPU-Sim uArch: core:  9, cta: 3 initialized @(11441,0)
GPGPU-Sim uArch: Shader 10 finished CTA #3 (11489,0), 5 CTAs running
GPGPU-Sim uArch: core: 10, cta: 3 initialized @(11490,0)
GPGPU-Sim uArch: cycles simulated: 11500  inst.: 5963809 (ipc=518.6) sim_rate=238552 (inst/sec) elapsed = 0:0:00:25 / Tue Mar 22 12:49:29 2016
GPGPU-Sim PTX: 6200000 instructions simulated : ctaid=(82,0,0) tid=(76,0,0)
GPGPU-Sim uArch: Shader 8 finished CTA #3 (11548,0), 5 CTAs running
GPGPU-Sim uArch: core:  8, cta: 3 initialized @(11549,0)
GPGPU-Sim uArch: Shader 6 finished CTA #3 (11581,0), 5 CTAs running
GPGPU-Sim uArch: core:  6, cta: 3 initialized @(11582,0)
GPGPU-Sim uArch: Shader 7 finished CTA #3 (11661,0), 5 CTAs running
GPGPU-Sim uArch: core:  7, cta: 3 initialized @(11662,0)
GPGPU-Sim PTX: 6300000 instructions simulated : ctaid=(80,0,0) tid=(76,0,0)
GPGPU-Sim uArch: Shader 5 finished CTA #3 (11682,0), 5 CTAs running
GPGPU-Sim uArch: core:  5, cta: 3 initialized @(11683,0)
GPGPU-Sim uArch: Shader 12 finished CTA #3 (11694,0), 5 CTAs running
GPGPU-Sim uArch: core: 12, cta: 3 initialized @(11695,0)
GPGPU-Sim uArch: Shader 11 finished CTA #3 (11702,0), 5 CTAs running
GPGPU-Sim uArch: core: 11, cta: 3 initialized @(11703,0)
GPGPU-Sim uArch: Shader 14 finished CTA #3 (11717,0), 5 CTAs running
GPGPU-Sim uArch: core: 14, cta: 3 initialized @(11718,0)
GPGPU-Sim PTX: 6400000 instructions simulated : ctaid=(78,0,0) tid=(209,0,0)
GPGPU-Sim PTX: 6500000 instructions simulated : ctaid=(131,0,0) tid=(249,0,0)
GPGPU-Sim uArch: cycles simulated: 12000  inst.: 6309495 (ipc=525.8) sim_rate=242672 (inst/sec) elapsed = 0:0:00:26 / Tue Mar 22 12:49:30 2016
GPGPU-Sim PTX: 6600000 instructions simulated : ctaid=(105,0,0) tid=(202,0,0)
GPGPU-Sim PTX: 6700000 instructions simulated : ctaid=(70,0,0) tid=(70,0,0)
GPGPU-Sim PTX: 6800000 instructions simulated : ctaid=(65,0,0) tid=(9,0,0)
GPGPU-Sim PTX: 6900000 instructions simulated : ctaid=(112,0,0) tid=(5,0,0)
GPGPU-Sim PTX: 7000000 instructions simulated : ctaid=(68,0,0) tid=(55,0,0)
GPGPU-Sim PTX: 7100000 instructions simulated : ctaid=(112,0,0) tid=(0,0,0)
GPGPU-Sim uArch: Shader 3 finished CTA #4 (12803,0), 5 CTAs running
GPGPU-Sim uArch: core:  3, cta: 4 initialized @(12804,0)
GPGPU-Sim uArch: Shader 1 finished CTA #4 (12847,0), 5 CTAs running
GPGPU-Sim uArch: core:  1, cta: 4 initialized @(12848,0)
GPGPU-Sim uArch: Shader 10 finished CTA #4 (12905,0), 5 CTAs running
GPGPU-Sim uArch: core: 10, cta: 4 initialized @(12906,0)
GPGPU-Sim PTX: 7200000 instructions simulated : ctaid=(115,0,0) tid=(110,0,0)
GPGPU-Sim uArch: cycles simulated: 13000  inst.: 6983860 (ipc=537.2) sim_rate=258661 (inst/sec) elapsed = 0:0:00:27 / Tue Mar 22 12:49:31 2016
GPGPU-Sim uArch: Shader 2 finished CTA #4 (13006,0), 5 CTAs running
GPGPU-Sim uArch: core:  2, cta: 4 initialized @(13007,0)
GPGPU-Sim uArch: Shader 7 finished CTA #4 (13092,0), 5 CTAs running
GPGPU-Sim uArch: core:  7, cta: 4 initialized @(13093,0)
GPGPU-Sim PTX: 7300000 instructions simulated : ctaid=(118,0,0) tid=(107,0,0)
GPGPU-Sim uArch: Shader 5 finished CTA #4 (13128,0), 5 CTAs running
GPGPU-Sim uArch: Shader 13 finished CTA #4 (13128,0), 5 CTAs running
GPGPU-Sim uArch: core: 13, cta: 4 initialized @(13129,0)
GPGPU-Sim uArch: core:  5, cta: 4 initialized @(13129,0)
GPGPU-Sim uArch: Shader 14 finished CTA #4 (13141,0), 5 CTAs running
GPGPU-Sim uArch: core: 14, cta: 4 initialized @(13142,0)
GPGPU-Sim uArch: Shader 11 finished CTA #4 (13178,0), 5 CTAs running
GPGPU-Sim uArch: core: 11, cta: 4 initialized @(13179,0)
GPGPU-Sim uArch: Shader 6 finished CTA #4 (13220,0), 5 CTAs running
GPGPU-Sim uArch: core:  6, cta: 4 initialized @(13221,0)
GPGPU-Sim uArch: Shader 12 finished CTA #4 (13260,0), 5 CTAs running
GPGPU-Sim uArch: core: 12, cta: 4 initialized @(13261,0)
GPGPU-Sim uArch: Shader 9 finished CTA #4 (13267,0), 5 CTAs running
GPGPU-Sim uArch: core:  9, cta: 4 initialized @(13268,0)
GPGPU-Sim PTX: 7400000 instructions simulated : ctaid=(97,0,0) tid=(12,0,0)
GPGPU-Sim uArch: Shader 4 finished CTA #4 (13305,0), 5 CTAs running
GPGPU-Sim uArch: core:  4, cta: 4 initialized @(13306,0)
GPGPU-Sim uArch: Shader 0 finished CTA #4 (13308,0), 5 CTAs running
GPGPU-Sim uArch: core:  0, cta: 4 initialized @(13309,0)
GPGPU-Sim uArch: Shader 8 finished CTA #4 (13327,0), 5 CTAs running
GPGPU-Sim uArch: core:  8, cta: 4 initialized @(13328,0)
GPGPU-Sim PTX: 7500000 instructions simulated : ctaid=(106,0,0) tid=(202,0,0)
GPGPU-Sim uArch: cycles simulated: 13500  inst.: 7297486 (ipc=540.6) sim_rate=260624 (inst/sec) elapsed = 0:0:00:28 / Tue Mar 22 12:49:32 2016
GPGPU-Sim PTX: 7600000 instructions simulated : ctaid=(77,0,0) tid=(126,0,0)
GPGPU-Sim PTX: 7700000 instructions simulated : ctaid=(116,0,0) tid=(232,0,0)
GPGPU-Sim PTX: 7800000 instructions simulated : ctaid=(100,0,0) tid=(50,0,0)
GPGPU-Sim uArch: cycles simulated: 14000  inst.: 7605507 (ipc=543.3) sim_rate=262258 (inst/sec) elapsed = 0:0:00:29 / Tue Mar 22 12:49:33 2016
GPGPU-Sim PTX: 7900000 instructions simulated : ctaid=(86,0,0) tid=(194,0,0)
[...]
gpgpu_stall_shd_mem[l_mem_ld][wb_icnt_rc] = 0
gpgpu_stall_shd_mem[l_mem_ld][wb_rsrv_fail] = 0
gpgpu_stall_shd_mem[l_mem_st][mshr_rc] = 0
gpgpu_stall_shd_mem[l_mem_st][icnt_rc] = 0
gpgpu_stall_shd_mem[l_mem_ld][wb_icnt_rc] = 0
gpgpu_stall_shd_mem[l_mem_ld][wb_rsrv_fail] = 0
gpu_reg_bank_conflict_stalls = 0
Warp Occupancy Distribution:
Stall:140908	W0_Idle:156704	W0_Scoreboard:1255011	W1:125056	W2:85976	W3:0	W4:85976	W5:0	W6:0	W7:0	W8:85976	W9:0	W10:0	W11:0	W12:0	W13:0	W14:0	W15:0	W16:85976	W17:0	W18:0	W19:0	W20:0	W21:0	W22:0	W23:0	W24:0	W25:0	W26:0	W27:0	W28:0	W29:0	W30:0	W31:0	W32:4335859
traffic_breakdown_coretomem[CONST_ACC_R] = 120 {8:15,}
traffic_breakdown_coretomem[GLOBAL_ACC_R] = 250000 {8:31250,}
traffic_breakdown_coretomem[GLOBAL_ACC_W] = 4328160 {40:1954,136:31250,}
traffic_breakdown_coretomem[INST_ACC_R] = 1280 {8:160,}
traffic_breakdown_memtocore[CONST_ACC_R] = 1080 {72:15,}
traffic_breakdown_memtocore[GLOBAL_ACC_R] = 4250000 {136:31250,}
traffic_breakdown_memtocore[GLOBAL_ACC_W] = 265632 {8:33204,}
traffic_breakdown_memtocore[INST_ACC_R] = 21760 {136:160,}
maxmrqlatency = 684 
maxdqlatency = 0 
maxmflatency = 1285 
averagemflatency = 316 
max_icnt2mem_latency = 267 
max_icnt2sh_latency = 218528 
mrq_lat_table:37588 	3807 	2430 	4271 	8165 	10190 	15541 	11763 	281 	3 	0 	0 	0 	0 	0 	0 	0 	0 	0 	0 	0 	0 	0 	0 	0 	0 	0 	0 	0 	0 	0 	0 	
dq_lat_table:0 	0 	0 	0 	0 	0 	0 	0 	0 	0 	0 	0 	0 	0 	0 	0 	0 	0 	0 	0 	0 	0 	0 	0 	0 	0 	0 	0 	0 	0 	0 	0 	
mf_lat_table:0 	0 	0 	0 	0 	0 	0 	2471 	59432 	2510 	56 	0 	0 	0 	0 	0 	0 	0 	0 	0 	0 	0 	0 	0 	0 	0 	0 	0 	0 	0 	0 	0 	
icnt2mem_lat_table:0 	0 	0 	33116 	10674 	18124 	2699 	14 	2 	0 	0 	0 	0 	0 	0 	0 	0 	0 	0 	0 	0 	0 	0 	0 	
icnt2sh_lat_table:0 	0 	0 	28412 	2568 	283 	2 	0 	0 	0 	0 	0 	166 	1485 	2702 	5144 	10663 	13044 	0 	0 	0 	0 	0 	0 	
mf_lat_pw_table:0 	0 	0 	0 	0 	0 	0 	66 	357 	3 	0 	0 	0 	0 	0 	0 	0 	0 	0 	0 	0 	0 	0 	0 	0 	0 	0 	0 	0 	0 	0 	0 	
maximum concurrent accesses to same row:
dram[0]:        64        64        64        64        64        64        64        64        64        64        64        64        64        64        64        64 
dram[1]:        64        64        64        64        64        64        64        64        64        64        64        64        64        64        64        64 
dram[2]:        64        64        64        64        64        64        64        64        64        64        64        64        64        64        64        64 
dram[3]:        64        64        64        64        64        64        64        64        64        64        64        64        64        64        64        64 
dram[4]:        64        64        64        64        64        64        64        64        64        64        64        64        64        64        64        64 
dram[5]:        64        64        64        64        64        64        64        64        64        64        64        64        64        64        64        64 
maximum service time to same row:
dram[0]:     15728     15386     15254     16022     15240     15362     17350     17533     15364     15606     15127     18742     15350     15497     15121     15322 
dram[1]:     15383     15430     15035     15258     15132     15444     17347     17612     15378     15298     19911     18754     15428     15440     15129     15333 
dram[2]:     15439     16130     15055     15888     15094     16459     17384     17493     15132     19147     14981     20191     15445     15831     15063     15853 
dram[3]:     15456     15271     15075     15214     15123     15225     17407     17481     15133     20649     15027     19880     15340     15467     15199     15200 
dram[4]:     15807     15228     15655     15020     15779     15238     17493     17506     15531     20649     16398     17292     15618     15475     15656     15181 
dram[5]:     15832     15302     15916     15065     15606     15299     17516     17556     15459     20649     19913     15169     15598     15235     15713     15256 
average row accesses per activate:
dram[0]: 41.869564 24.666666 43.636364 32.000000 46.190475 26.216217 39.680000 26.810810 46.454544 30.058823 36.035713 24.585365 48.000000 28.235294 43.636364 25.263159 
dram[1]: 26.000000 23.463415 25.263159 25.263159 29.393940 24.871796 25.435898 24.195122 30.058823 26.894737 18.327272 17.649122 30.000000 22.857143 30.000000 22.857143 
dram[2]: 24.666666 38.480000 25.263159 43.636364 24.871796 46.285713 23.069767 47.238094 26.894737 46.454544 20.755102 28.742857 24.000000 43.636364 25.263159 43.636364 
dram[3]: 25.263159 31.032259 25.263159 30.000000 22.558140 29.454546 24.195122 30.060606 24.333334 33.032257 21.510639 25.871796 24.000000 32.000000 25.263159 28.235294 
dram[4]: 43.636364 22.372093 48.000000 26.666666 42.173912 27.771429 43.130436 25.435898 46.454544 29.257143 24.095238 16.606558 48.000000 28.235294 48.000000 26.666666 
dram[5]: 31.032259 22.372093 34.285713 25.263159 29.393940 27.771429 34.206898 26.810810 39.307693 26.256411 27.162163 20.653061 34.285713 24.000000 32.000000 26.666666 
average row locality = 94039/3285 = 28.626789
number of total memory accesses made:
dram[0]:         0         0         0         0         0         0         0         0         0         0         0         0         0         0         0         0 
dram[1]:         0         0         0         0         0         0         0         0         0         0         0         0         0         0         0         0 
dram[2]:         0         0         0         0         0         0         0         0         0         0         0         0         0         0         0         0 
dram[3]:         0         0         0         0         0         0         0         0         0         0         0         0         0         0         0         0 
dram[4]:         0         0         0         0         0         0         0         0         0         0         0         0         0         0         0         0 
dram[5]:         0         0         0         0         0         0         0         0         0         0         0         0         0         0         0         0 
total accesses: 0
min_bank_accesses = 0!
min_chip_accesses = 0!
number of total read accesses:
dram[0]:       643       642       640       640       650       650       672       672       672       672       660       658       640       640       640       640 
dram[1]:       642       642       640       640       650       650       672       672       672       672       660       658       640       640       640       640 
dram[2]:       642       642       640       640       650       652       672       672       672       672       660       658       640       640       640       640 
dram[3]:       640       642       640       640       650       652       672       672       672       672       660       658       640       640       640       640 
dram[4]:       640       642       640       640       650       652       672       672       672       672       660       658       640       640       640       640 
dram[5]:       642       642       640       640       650       652       672       672       672       672       658       658       640       640       640       640 
total reads: 62583
bank skew: 672/640 = 1.05
chip skew: 10432/10430 = 1.00
number of total write accesses:
dram[0]:       320       320       320       320       320       320       320       320       350       350       349       350       320       320       320       320 
dram[1]:       320       320       320       320       320       320       320       320       350       350       348       348       320       320       320       320 
dram[2]:       320       320       320       320       320       320       320       320       350       350       357       348       320       320       320       320 
dram[3]:       320       320       320       320       320       320       320       320       350       352       351       351       320       320       320       320 
dram[4]:       320       320       320       320       320       320       320       320       350       352       352       355       320       320       320       320 
dram[5]:       320       320       320       320       320       320       320       320       350       352       347       354       320       320       320       320 
total reads: 31456
bank skew: 357/320 = 1.12
chip skew: 5249/5236 = 1.00
average mf latency per bank:
dram[0]:        212       209       213       209       207       208       215       215       211       215       243       232       221       217       210       212
dram[1]:        206       215       207       214       203       213       213       219       211       220       237       238       214       220       211       215
dram[2]:        206       208       208       211       206       210       214       216       213       217       239       235       214       220       212       211
dram[3]:        212       211       213       213       209       210       218       217       218       213       242       233       218       219       218       209
dram[4]:        210       212       209       214       206       211       215       219       215       215       236       245       217       220       213       212
dram[5]:        207       215       207       219       208       213       212       221       213       215       228       249       218       224       209       214
maximum mf latency per bank:
dram[0]:        673       698       678       789       598       567       614       636      1184      1181      1164      1024       993       815       602       643
dram[1]:        673       701       674       695       665       686       684       670      1063      1156      1086      1132       927       743       577       661
dram[2]:        668       682       699       691       631       614       614       636      1005      1163      1069      1285       749       994       619       633
dram[3]:        666       752       670       672       597       736       634       624      1086      1200      1138       953       720       882       574       574
dram[4]:        776       766       678       669       596       631       647       704      1134      1225      1139       969       984       775       657       577
dram[5]:        701       722       657       677       714       644       674       625      1147      1215      1089      1094       907       854       705       612

Number of Memory Banks Accessed per Memory Operation per Warp (from 0):
0	0	0	0	0	0	0	0	0	0	0	0	0	0	0	0	0	0	0	0	0	0	0	0	0	0	0	0	0	0	0	0	0	0	0	0	0	0	0	0	0	0	0	0	0	0	0	0	0	0	0	0	0	0	0	0	0	0	0	0	0	0	0	0	0	0	0	0	0	0	0	0	0	0	0	0	0	0	0	0	0	0	0	0	0	0	0	0	0	0	0	0	0	0	0	0	
Average # of Memory Banks Accessed per Memory Operation per Warp=-nan

position of mrq chosen
0	0	0	0	0	0	0	0	0	0	0	0	0	0	0	0	

average position of mrq chosen = -nan
Memory Partition 0: 
Cache L2_bank_000:
MSHR contents

Cache L2_bank_001:
MSHR contents

In Dram Latency Queue (total = 0): 
DRAM[0]: 16 bks, busW=4 BL=8 CL=12, tRRD=2 tCCD=6, tRCD=12 tRAS=28 tRP=12 tRC=40
n_cmd=288464 n_nop=256213 n_act=474 n_pre=458 n_req=15670 n_rd=20862 n_write=10457 bw_util=0.2171
n_activity=169087 dram_eff=0.3704
bk0: 1286a 272631i bk1: 1284a 271354i bk2: 1280a 271451i bk3: 1280a 270693i bk4: 1300a 272143i bk5: 1300a 270526i bk6: 1344a 272214i bk7: 1344a 270509i bk8: 1344a 271864i bk9: 1344a 269948i bk10: 1320a 270707i bk11: 1316a 269540i bk12: 1280a 271535i bk13: 1280a 270546i bk14: 1280a 272397i bk15: 1280a 271089i 
dram_util_bins: 0 0 0 0 0 0 0 0 0 0
dram_eff_bins: 0 0 0 0 0 0 0 0 0 0
mrqq: max=16 avg=3.11725
Memory Partition 1: 
Cache L2_bank_002:
MSHR contents

Cache L2_bank_003:
MSHR contents

In Dram Latency Queue (total = 0): 
DRAM[1]: 16 bks, busW=4 BL=8 CL=12, tRRD=2 tCCD=6, tRCD=12 tRAS=28 tRP=12 tRC=40
n_cmd=288464 n_nop=255892 n_act=638 n_pre=622 n_req=15666 n_rd=20860 n_write=10452 bw_util=0.2171
n_activity=168841 dram_eff=0.3709
bk0: 1284a 271366i bk1: 1284a 270848i bk2: 1280a 270032i bk3: 1280a 270116i bk4: 1300a 271290i bk5: 1300a 270290i bk6: 1344a 271358i bk7: 1344a 270120i bk8: 1344a 270744i bk9: 1344a 269952i bk10: 1320a 269644i bk11: 1316a 268665i bk12: 1280a 271200i bk13: 1280a 269909i bk14: 1280a 271262i bk15: 1280a 270869i 
dram_util_bins: 0 0 0 0 0 0 0 0 0 0
dram_eff_bins: 0 0 0 0 0 0 0 0 0 0
mrqq: max=16 avg=3.23735
Memory Partition 2: 
Cache L2_bank_004:
MSHR contents

Cache L2_bank_005:
MSHR contents

In Dram Latency Queue (total = 0): 
DRAM[2]: 16 bks, busW=4 BL=8 CL=12, tRRD=2 tCCD=6, tRCD=12 tRAS=28 tRP=12 tRC=40
n_cmd=288464 n_nop=256127 n_act=514 n_pre=498 n_req=15677 n_rd=20864 n_write=10461 bw_util=0.2172
n_activity=169157 dram_eff=0.3704
bk0: 1284a 271395i bk1: 1284a 272379i bk2: 1280a 270549i bk3: 1280a 271241i bk4: 1300a 270936i bk5: 1304a 271152i bk6: 1344a 270988i bk7: 1344a 271437i bk8: 1344a 270566i bk9: 1344a 270730i bk10: 1320a 269663i bk11: 1316a 269995i bk12: 1280a 271338i bk13: 1280a 271098i bk14: 1280a 271314i bk15: 1280a 271950i 
dram_util_bins: 0 0 0 0 0 0 0 0 0 0
dram_eff_bins: 0 0 0 0 0 0 0 0 0 0
mrqq: max=16 avg=3.06503
Memory Partition 3: 
Cache L2_bank_006:
MSHR contents

Cache L2_bank_007:
MSHR contents

In Dram Latency Queue (total = 0): 
DRAM[3]: 16 bks, busW=4 BL=8 CL=12, tRRD=2 tCCD=6, tRCD=12 tRAS=28 tRP=12 tRC=40
n_cmd=288464 n_nop=255978 n_act=590 n_pre=574 n_req=15674 n_rd=20860 n_write=10462 bw_util=0.2172
n_activity=167667 dram_eff=0.3736
bk0: 1280a 271340i bk1: 1284a 270706i bk2: 1280a 269925i bk3: 1280a 269992i bk4: 1300a 270417i bk5: 1304a 270688i bk6: 1344a 270729i bk7: 1344a 270548i bk8: 1344a 269748i bk9: 1344a 269880i bk10: 1320a 269430i bk11: 1316a 269855i bk12: 1280a 270872i bk13: 1280a 270576i bk14: 1280a 270978i bk15: 1280a 270993i 
dram_util_bins: 0 0 0 0 0 0 0 0 0 0
dram_eff_bins: 0 0 0 0 0 0 0 0 0 0
mrqq: max=16 avg=3.3344
Memory Partition 4: 
Cache L2_bank_008:
MSHR contents

Cache L2_bank_009:
MSHR contents

In Dram Latency Queue (total = 0): 
DRAM[4]: 16 bks, busW=4 BL=8 CL=12, tRRD=2 tCCD=6, tRCD=12 tRAS=28 tRP=12 tRC=40
n_cmd=288464 n_nop=256131 n_act=511 n_pre=495 n_req=15679 n_rd=20860 n_write=10467 bw_util=0.2172
n_activity=168121 dram_eff=0.3727
bk0: 1280a 272394i bk1: 1284a 271013i bk2: 1280a 271102i bk3: 1280a 270362i bk4: 1300a 271793i bk5: 1304a 270822i bk6: 1344a 272037i bk7: 1344a 270660i bk8: 1344a 271240i bk9: 1344a 269883i bk10: 1320a 270517i bk11: 1316a 269353i bk12: 1280a 271746i bk13: 1280a 270491i bk14: 1280a 272118i bk15: 1280a 271094i 
dram_util_bins: 0 0 0 0 0 0 0 0 0 0
dram_eff_bins: 0 0 0 0 0 0 0 0 0 0
mrqq: max=16 avg=3.15912
Memory Partition 5: 
Cache L2_bank_010:
MSHR contents

Cache L2_bank_011:
MSHR contents

In Dram Latency Queue (total = 0): 
DRAM[5]: 16 bks, busW=4 BL=8 CL=12, tRRD=2 tCCD=6, tRCD=12 tRAS=28 tRP=12 tRC=40
n_cmd=288464 n_nop=256041 n_act=559 n_pre=543 n_req=15673 n_rd=20860 n_write=10461 bw_util=0.2172
n_activity=167549 dram_eff=0.3739
bk0: 1284a 271498i bk1: 1284a 270220i bk2: 1280a 271055i bk3: 1280a 269748i bk4: 1300a 270719i bk5: 1304a 270445i bk6: 1344a 271402i bk7: 1344a 270446i bk8: 1344a 270317i bk9: 1344a 269898i bk10: 1316a 269855i bk11: 1316a 268681i bk12: 1280a 270470i bk13: 1280a 270229i bk14: 1280a 271622i bk15: 1280a 270956i 
dram_util_bins: 0 0 0 0 0 0 0 0 0 0
dram_eff_bins: 0 0 0 0 0 0 0 0 0 0
mrqq: max=16 avg=3.30193

========= L2 cache stats =========
L2_cache_bank[0]: Access = 5417, Miss = 5217, Miss_rate = 0.963, Pending_hits = 6, Reservation_fails = 100
L2_cache_bank[1]: Access = 5366, Miss = 5214, Miss_rate = 0.972, Pending_hits = 14, Reservation_fails = 249
L2_cache_bank[2]: Access = 5402, Miss = 5216, Miss_rate = 0.966, Pending_hits = 4, Reservation_fails = 0
L2_cache_bank[3]: Access = 5366, Miss = 5214, Miss_rate = 0.972, Pending_hits = 12, Reservation_fails = 179
L2_cache_bank[4]: Access = 5402, Miss = 5216, Miss_rate = 0.966, Pending_hits = 13, Reservation_fails = 0
L2_cache_bank[5]: Access = 5368, Miss = 5216, Miss_rate = 0.972, Pending_hits = 12, Reservation_fails = 209
L2_cache_bank[6]: Access = 5400, Miss = 5214, Miss_rate = 0.966, Pending_hits = 7, Reservation_fails = 0
L2_cache_bank[7]: Access = 5368, Miss = 5216, Miss_rate = 0.972, Pending_hits = 15, Reservation_fails = 357
L2_cache_bank[8]: Access = 5370, Miss = 5214, Miss_rate = 0.971, Pending_hits = 8, Reservation_fails = 0
L2_cache_bank[9]: Access = 5402, Miss = 5216, Miss_rate = 0.966, Pending_hits = 11, Reservation_fails = 235
L2_cache_bank[10]: Access = 5366, Miss = 5214, Miss_rate = 0.972, Pending_hits = 11, Reservation_fails = 206
L2_cache_bank[11]: Access = 5402, Miss = 5216, Miss_rate = 0.966, Pending_hits = 10, Reservation_fails = 90
L2_total_cache_accesses = 64629
L2_total_cache_misses = 62583
L2_total_cache_miss_rate = 0.9683
L2_total_cache_pending_hits = 123
L2_total_cache_reservation_fails = 1625
L2_total_cache_breakdown:
	L2_cache_stats_breakdown[GLOBAL_ACC_R][MISS] = 31250
	L2_cache_stats_breakdown[CONST_ACC_R][HIT] = 11
	L2_cache_stats_breakdown[CONST_ACC_R][HIT_RESERVED] = 3
	L2_cache_stats_breakdown[CONST_ACC_R][MISS] = 1
	L2_cache_stats_breakdown[CONST_ACC_R][RESERVATION_FAIL] = 100
	L2_cache_stats_breakdown[GLOBAL_ACC_W][HIT] = 1802
	L2_cache_stats_breakdown[GLOBAL_ACC_W][HIT_RESERVED] = 90
	L2_cache_stats_breakdown[GLOBAL_ACC_W][MISS] = 31312
	L2_cache_stats_breakdown[GLOBAL_ACC_W][RESERVATION_FAIL] = 561
	L2_cache_stats_breakdown[INST_ACC_R][HIT] = 110
	L2_cache_stats_breakdown[INST_ACC_R][HIT_RESERVED] = 30
	L2_cache_stats_breakdown[INST_ACC_R][MISS] = 20
	L2_cache_stats_breakdown[INST_ACC_R][RESERVATION_FAIL] = 964
L2_cache_data_port_util = 0.001
L2_cache_fill_port_util = 0.095

icnt_total_pkts_mem_to_simt=190299
icnt_total_pkts_simt_to_mem=191583
LD_mem_lat_dist  0 0 0 0 0 0 0 0 0 0 0 0 0 0 0 0 0 0 0 0 0 0 0 0 0 0 0
ST_mem_lat_dist  0 0 0 0 0 0 0 0 0 0 0 0 0 0 0 0 0 0 0 0 0 0 0 0 0 0 0
----------------------------Interconnect-DETAILS--------------------------------
Class 0:
Packet latency average = 8
	minimum = 6
	maximum = 10
Network latency average = 8
	minimum = 6
	maximum = 10
Slowest packet = 129229
Flit latency average = 6.03448
	minimum = 6
	maximum = 9
Slowest flit = 381881
Fragmentation average = 0
	minimum = 0
	maximum = 0
Injected packet rate average = 0.000191472
	minimum = 0 (at node 0)
	maximum = 0.00258487 (at node 5)
Accepted packet rate average = 0.000191472
	minimum = 0 (at node 0)
	maximum = 0.00258487 (at node 5)
Injected flit rate average = 0.000555268
	minimum = 0 (at node 0)
	maximum = 0.00413579 (at node 5)
Accepted flit rate average= 0.000555268
	minimum = 0 (at node 0)
	maximum = 0.0108565 (at node 5)
Injected packet length average = 2.9
Accepted packet length average = 2.9
Total in-flight flits = 0 (0 measured)
====== Overall Traffic Statistics ======
====== Traffic class 0 ======
Packet latency average = 9.62012 (2 samples)
	minimum = 6 (2 samples)
	maximum = 38.5 (2 samples)
Network latency average = 8.93172 (2 samples)
	minimum = 6 (2 samples)
	maximum = 31 (2 samples)
Flit latency average = 7.26377 (2 samples)
	minimum = 6 (2 samples)
	maximum = 28.5 (2 samples)
Fragmentation average = 0 (2 samples)
	minimum = 0 (2 samples)
	maximum = 0 (2 samples)
Injected packet rate average = 0.0113452 (2 samples)
	minimum = 0.010109 (2 samples)
	maximum = 0.0140197 (2 samples)
Accepted packet rate average = 0.0113452 (2 samples)
	minimum = 0.010109 (2 samples)
	maximum = 0.0140197 (2 samples)
Injected flit rate average = 0.0335132 (2 samples)
	minimum = 0.0299696 (2 samples)
	maximum = 0.0394436 (2 samples)
Accepted flit rate average = 0.0335132 (2 samples)
	minimum = 0.0297628 (2 samples)
	maximum = 0.0430883 (2 samples)
Injected packet size average = 2.95397 (2 samples)
Accepted packet size average = 2.95397 (2 samples)
Hops average = 1 (2 samples)
