

        *** GPGPU-Sim Simulator Version 3.2.2  [build 0] ***


GPGPU-Sim PTX: simulation mode 0 (can change with PTX_SIM_MODE_FUNC environment variable:
               1=functional simulation only, 0=detailed performance simulator)
GPGPU-Sim: Configuration options:

-network_mode                           1 # Interconnection network mode
-inter_config_file   config_fermi_islip.icnt # Interconnection network config file
-gpgpu_ptx_use_cuobjdump                    1 # Use cuobjdump to extract ptx and sass from binaries
-gpgpu_experimental_lib_support                    0 # Try to extract code from cuda libraries [Broken because of unknown cudaGetExportTable]
-gpgpu_ptx_convert_to_ptxplus                    0 # Convert SASS (native ISA) to ptxplus and run ptxplus
-gpgpu_ptx_force_max_capability                   20 # Force maximum compute capability
-gpgpu_ptx_inst_debug_to_file                    0 # Dump executed instructions' debug information to file
-gpgpu_ptx_inst_debug_file       inst_debug.txt # Executed instructions' debug output file
-gpgpu_ptx_inst_debug_thread_uid                    1 # Thread UID for executed instructions' debug output
-gpgpu_simd_model                       1 # 1 = post-dominator
-gpgpu_shader_core_pipeline              1536:32 # shader core pipeline config, i.e., {<nthread>:<warpsize>}
-gpgpu_tex_cache:l1  4:128:24,L:R:m:N:L,F:128:4,128:2 # per-shader L1 texture cache  (READ-ONLY) config  {<nsets>:<bsize>:<assoc>,<rep>:<wr>:<alloc>:<wr_alloc>,<mshr>:<N>:<merge>,<mq>:<rf>}
-gpgpu_const_cache:l1 64:64:2,L:R:f:N:L,A:2:32,4 # per-shader L1 constant memory cache  (READ-ONLY) config  {<nsets>:<bsize>:<assoc>,<rep>:<wr>:<alloc>:<wr_alloc>,<mshr>:<N>:<merge>,<mq>} 
-gpgpu_cache:il1     4:128:4,L:R:f:N:L,A:2:32,4 # shader L1 instruction cache config  {<nsets>:<bsize>:<assoc>,<rep>:<wr>:<alloc>:<wr_alloc>,<mshr>:<N>:<merge>,<mq>} 
-gpgpu_cache:dl1     32:128:4,L:L:m:N:H,A:32:8,8:2,0,1:0:1:1:0:1,1:4:8:16:32:64,/sciclone/data10/hwang07/GPU_RESEARCH/swl/swl_outputs/RESULTS/swl4/ # per-shader L1 data cache config  {<nsets>:<bsize>:<assoc>,<rep>:<wr>:<alloc>:<wr_alloc>,<mshr>:<N>:<merge>,<mq> | none}
-gpgpu_cache:dl1PrefL1                 none # per-shader L1 data cache config  {<nsets>:<bsize>:<assoc>,<rep>:<wr>:<alloc>:<wr_alloc>,<mshr>:<N>:<merge>,<mq> | none}
-gpgpu_cache:dl1PreShared                 none # per-shader L1 data cache config  {<nsets>:<bsize>:<assoc>,<rep>:<wr>:<alloc>:<wr_alloc>,<mshr>:<N>:<merge>,<mq> | none}
-gmem_skip_L1D                          0 # global memory access skip L1D cache (implements -Xptxas -dlcm=cg, default=no skip)
-gpgpu_perfect_mem                      0 # enable perfect memory mode (no cache miss)
-n_regfile_gating_group                    4 # group of lanes that should be read/written together)
-gpgpu_clock_gated_reg_file                    0 # enable clock gated reg file for power calculations
-gpgpu_clock_gated_lanes                    0 # enable clock gated lanes for power calculations
-gpgpu_shader_registers                32768 # Number of registers per shader core. Limits number of concurrent CTAs. (default 8192)
-gpgpu_shader_cta                       8 # Maximum number of concurrent CTAs in shader (default 8)
-gpgpu_num_cta_barriers                   16 # Maximum number of named barriers per CTA (default 16)
-gpgpu_n_clusters                      15 # number of processing clusters
-gpgpu_n_cores_per_cluster                    1 # number of simd cores per cluster
-gpgpu_n_cluster_ejection_buffer_size                    8 # number of packets in ejection buffer
-gpgpu_n_ldst_response_buffer_size                    2 # number of response packets in ld/st unit ejection buffer
-gpgpu_shmem_size                   16384 # Size of shared memory per shader core (default 16kB)
-gpgpu_shmem_size                   49152 # Size of shared memory per shader core (default 16kB)
-gpgpu_shmem_size_PrefL1                16384 # Size of shared memory per shader core (default 16kB)
-gpgpu_shmem_size_PrefShared                16384 # Size of shared memory per shader core (default 16kB)
-gpgpu_shmem_num_banks                   32 # Number of banks in the shared memory in each shader core (default 16)
-gpgpu_shmem_limited_broadcast                    0 # Limit shared memory to do one broadcast per cycle (default on)
-gpgpu_shmem_warp_parts                    1 # Number of portions a warp is divided into for shared memory bank conflict check 
-gpgpu_warpdistro_shader                   -1 # Specify which shader core to collect the warp size distribution from
-gpgpu_warp_issue_shader                    0 # Specify which shader core to collect the warp issue distribution from
-gpgpu_local_mem_map                    1 # Mapping from local memory space address to simulated GPU physical address space (default = enabled)
-gpgpu_num_reg_banks                   16 # Number of register banks (default = 8)
-gpgpu_reg_bank_use_warp_id                    0 # Use warp ID in mapping registers to banks (default = off)
-gpgpu_operand_collector_num_units_sp                    6 # number of collector units (default = 4)
-gpgpu_operand_collector_num_units_sfu                    8 # number of collector units (default = 4)
-gpgpu_operand_collector_num_units_mem                    2 # number of collector units (default = 2)
-gpgpu_operand_collector_num_units_gen                    0 # number of collector units (default = 0)
-gpgpu_operand_collector_num_in_ports_sp                    2 # number of collector unit in ports (default = 1)
-gpgpu_operand_collector_num_in_ports_sfu                    1 # number of collector unit in ports (default = 1)
-gpgpu_operand_collector_num_in_ports_mem                    1 # number of collector unit in ports (default = 1)
-gpgpu_operand_collector_num_in_ports_gen                    0 # number of collector unit in ports (default = 0)
-gpgpu_operand_collector_num_out_ports_sp                    2 # number of collector unit in ports (default = 1)
-gpgpu_operand_collector_num_out_ports_sfu                    1 # number of collector unit in ports (default = 1)
-gpgpu_operand_collector_num_out_ports_mem                    1 # number of collector unit in ports (default = 1)
-gpgpu_operand_collector_num_out_ports_gen                    0 # number of collector unit in ports (default = 0)
-gpgpu_coalesce_arch                   13 # Coalescing arch (default = 13, anything else is off for now)
-gpgpu_num_sched_per_core                    2 # Number of warp schedulers per core
-gpgpu_max_insn_issue_per_warp                    1 # Max number of instructions that can be issued per warp in one cycle by scheduler
-gpgpu_simt_core_sim_order                    1 # Select the simulation order of cores in a cluster (0=Fix, 1=Round-Robin)
-gpgpu_pipeline_widths        2,1,1,2,1,1,2 # Pipeline widths ID_OC_SP,ID_OC_SFU,ID_OC_MEM,OC_EX_SP,OC_EX_SFU,OC_EX_MEM,EX_WB
-gpgpu_num_sp_units                     2 # Number of SP units (default=1)
-gpgpu_num_sfu_units                    1 # Number of SF units (default=1)
-gpgpu_num_mem_units                    1 # Number if ldst units (default=1) WARNING: not hooked up to anything
-gpgpu_scheduler        warp_limiting:2:4 # Scheduler configuration: < lrr | gto | two_level_active > If two_level_active:<num_active_warps>:<inner_prioritization>:<outer_prioritization>For complete list of prioritization values see shader.h enum scheduler_prioritization_typeDefault: gto
-gpgpu_dram_scheduler                    1 # 0 = fifo, 1 = FR-FCFS (defaul)
-gpgpu_dram_partition_queues              8:8:8:8 # i2$:$2d:d2$:$2i
-l2_ideal                               0 # Use a ideal L2 cache that always hit
-gpgpu_cache:dl2     64:128:8,L:B:m:W:L,A:32:4,4:0,32 # unified banked L2 data cache config  {<nsets>:<bsize>:<assoc>,<rep>:<wr>:<alloc>:<wr_alloc>,<mshr>:<N>:<merge>,<mq>}
-gpgpu_cache:dl2_texture_only                    0 # L2 cache used for texture only
-gpgpu_n_mem                            6 # number of memory modules (e.g. memory controllers) in gpu
-gpgpu_n_sub_partition_per_mchannel                    2 # number of memory subpartition in each memory module
-gpgpu_n_mem_per_ctrlr                    2 # number of memory chips per memory controller
-gpgpu_memlatency_stat                   14 # track and display latency statistics 0x2 enables MC, 0x4 enables queue logs
-gpgpu_frfcfs_dram_sched_queue_size                   16 # 0 = unlimited (default); # entries per chip
-gpgpu_dram_return_queue_size                  116 # 0 = unlimited (default); # entries per chip
-gpgpu_dram_buswidth                    4 # default = 4 bytes (8 bytes per cycle at DDR)
-gpgpu_dram_burst_length                    8 # Burst length of each DRAM request (default = 4 data bus cycle)
-dram_data_command_freq_ratio                    4 # Frequency ratio between DRAM data bus and command bus (default = 2 times, i.e. DDR)
-gpgpu_dram_timing_opt nbk=16:CCD=2:RRD=6:RCD=12:RAS=28:RP=12:RC=40: CL=12:WL=4:CDLR=5:WR=12:nbkgrp=4:CCDL=3:RTPL=2 # DRAM timing parameters = {nbk:tCCD:tRRD:tRCD:tRAS:tRP:tRC:CL:WL:tCDLR:tWR:nbkgrp:tCCDL:tRTPL}
-rop_latency                          120 # ROP queue latency (default 85)
-dram_latency                         100 # DRAM latency (default 30)
-gpgpu_mem_addr_mapping dramid@8;00000000.00000000.00000000.00000000.0000RRRR.RRRRRRRR.BBBCCCCB.CCSSSSSS # mapping memory address to dram model {dramid@<start bit>;<memory address map>}
-gpgpu_mem_addr_test                    0 # run sweep test to check address mapping for aliased address
-gpgpu_mem_address_mask                    1 # 0 = old addressing mask, 1 = new addressing mask, 2 = new add. mask + flipped bank sel and chip sel bits
-gpuwattch_xml_file  gpuwattch_gtx480.xml # GPUWattch XML file
-power_simulation_enabled                    0 # Turn on power simulator (1=On, 0=Off)
-power_per_cycle_dump                    0 # Dump detailed power output each cycle
-power_trace_enabled                    0 # produce a file for the power trace (1=On, 0=Off)
-power_trace_zlevel                     6 # Compression level of the power trace output log (0=no comp, 9=highest)
-steady_power_levels_enabled                    0 # produce a file for the steady power levels (1=On, 0=Off)
-steady_state_definition                  8:4 # allowed deviation:number of samples
-gpgpu_max_cycle                        0 # terminates gpu simulation early (0 = no limit)
-gpgpu_max_insn                         0 # terminates gpu simulation early (0 = no limit)
-gpgpu_max_cta                          0 # terminates gpu simulation early (0 = no limit)
-gpgpu_runtime_stat                   500 # display runtime statistics such as dram utilization {<freq>:<flag>}
-liveness_message_freq                    1 # Minimum number of seconds between simulation liveness messages (0 = always print)
-gpgpu_flush_l1_cache                    0 # Flush L1 cache at the end of each kernel call
-gpgpu_flush_l2_cache                    0 # Flush L2 cache at the end of each kernel call
-gpgpu_deadlock_detect                    1 # Stop the simulation at deadlock (1=on (default), 0=off)
-gpgpu_ptx_instruction_classification                    0 # if enabled will classify ptx instruction types per kernel (Max 255 kernels now)
-gpgpu_ptx_sim_mode                     0 # Select between Performance (default) or Functional simulation (1)
-gpgpu_clock_domains 700.0:700.0:700.0:924.0 # Clock Domain Frequencies in MhZ {<Core Clock>:<ICNT Clock>:<L2 Clock>:<DRAM Clock>}
-gpgpu_max_concurrent_kernel                    8 # maximum kernels that can run concurrently on GPU
-gpgpu_cflog_interval                    0 # Interval between each snapshot in control flow logger
-visualizer_enabled                     0 # Turn on visualizer output (1=On, 0=Off)
-visualizer_outputfile                 NULL # Specifies the output log file for visualizer
-visualizer_zlevel                      6 # Compression level of the visualizer output log (0=no comp, 9=highest)
-trace_enabled                          0 # Turn on traces
-trace_components                    none # comma seperated list of traces to enable. Complete list found in trace_streams.tup. Default none
-trace_sampling_core                    0 # The core which is printed using CORE_DPRINTF. Default 0
-trace_sampling_memory_partition                   -1 # The memory partition which is printed using MEMPART_DPRINTF. Default -1 (i.e. all)
-enable_ptx_file_line_stats                    1 # Turn on PTX source line statistic profiling. (1 = On)
-ptx_line_stats_filename gpgpu_inst_stats.txt # Output file for PTX source line statistics.
-save_embedded_ptx                      0 # saves ptx files embedded in binary as <n>.ptx
-keep                                   0 # keep intermediate files created by GPGPU-Sim when interfacing with external programs
-gpgpu_ptx_save_converted_ptxplus                    0 # Saved converted ptxplus to a file
-ptx_opcode_latency_int         4,13,4,5,145 # Opcode latencies for integers <ADD,MAX,MUL,MAD,DIV>Default 1,1,19,25,145
-ptx_opcode_latency_fp          4,13,4,5,39 # Opcode latencies for single precision floating points <ADD,MAX,MUL,MAD,DIV>Default 1,1,1,1,30
-ptx_opcode_latency_dp         8,19,8,8,330 # Opcode latencies for double precision floating points <ADD,MAX,MUL,MAD,DIV>Default 8,8,8,8,335
-ptx_opcode_initiation_int            1,2,2,1,8 # Opcode initiation intervals for integers <ADD,MAX,MUL,MAD,DIV>Default 1,1,4,4,32
-ptx_opcode_initiation_fp            1,2,1,1,4 # Opcode initiation intervals for single precision floating points <ADD,MAX,MUL,MAD,DIV>Default 1,1,1,1,5
-ptx_opcode_initiation_dp         8,16,8,8,130 # Opcode initiation intervals for double precision floating points <ADD,MAX,MUL,MAD,DIV>Default 8,8,8,8,130
DRAM Timing Options:
nbk                                    16 # number of banks
CCD                                     2 # column to column delay
RRD                                     6 # minimal delay between activation of rows in different banks
RCD                                    12 # row to column delay
RAS                                    28 # time needed to activate row
RP                                     12 # time needed to precharge (deactivate) row
RC                                     40 # row cycle time
CDLR                                    5 # switching from write to read (changes tWTR)
WR                                     12 # last data-in to row precharge
CL                                     12 # CAS latency
WL                                      4 # Write latency
nbkgrp                                  4 # number of bank groups
CCDL                                    3 # column to column delay between accesses to different bank groups
RTPL                                    2 # read to precharge delay between accesses to different bank groups
Total number of memory sub partition = 12
addr_dec_mask[CHIP]  = 0000000000000000 	high:64 low:0
addr_dec_mask[BK]    = 000000000000e100 	high:16 low:8
addr_dec_mask[ROW]   = 000000000fff0000 	high:28 low:16
addr_dec_mask[COL]   = 0000000000001eff 	high:13 low:0
addr_dec_mask[BURST] = 000000000000003f 	high:6 low:0
sub_partition_id_mask = 0000000000000100
GPGPU-Sim uArch: clock freqs: 700000000.000000:700000000.000000:700000000.000000:924000000.000000
GPGPU-Sim uArch: clock periods: 0.00000000142857142857:0.00000000142857142857:0.00000000142857142857:0.00000000108225108225
*** Initializing Memory Statistics ***
GPGPU-Sim uArch: interconnect node map (shaderID+MemID to icntID)
GPGPU-Sim uArch: Memory nodes ID start from index: 15
GPGPU-Sim uArch:    0   1   2   3   4
GPGPU-Sim uArch:    5   6   7   8   9
GPGPU-Sim uArch:   10  11  12  13  14
GPGPU-Sim uArch:   15  16  17  18  19
GPGPU-Sim uArch:   20  21  22  23  24
GPGPU-Sim uArch:   25  26
GPGPU-Sim uArch: interconnect node reverse map (icntID to shaderID+MemID)
GPGPU-Sim uArch: Memory nodes start from ID: 15
GPGPU-Sim uArch:    0   1   2   3   4
GPGPU-Sim uArch:    5   6   7   8   9
GPGPU-Sim uArch:   10  11  12  13  14
GPGPU-Sim uArch:   15  16  17  18  19
GPGPU-Sim uArch:   20  21  22  23  24
GPGPU-Sim uArch:   25  26
96cf2a65eb896a14ecc5af85c6ba92b9  /sciclone/data10/hwang07/adwait/applications/benchmarks/rodinia/cuda/bfs/gpgpu_ptx_sim__bfs
GPGPU-Sim uArch: performance model initialization complete.
GPGPU-Sim PTX: __cudaRegisterFatBinary, fat_cubin_handle = 1, filename=bfs.cu
self exe links to: /sciclone/data10/hwang07/adwait/applications/benchmarks/rodinia/cuda/bfs/gpgpu_ptx_sim__bfs
Running md5sum using "md5sum /sciclone/data10/hwang07/adwait/applications/benchmarks/rodinia/cuda/bfs/gpgpu_ptx_sim__bfs "
Parsing file _cuobjdump_complete_output_BsbbXJ
######### cuobjdump parser ########
## Adding new section ELF
Adding arch: sm_20
Adding identifier: bfs.cu
## Adding new section PTX
Adding ptx filename: _cuobjdump_1.ptx
Adding arch: sm_20
Adding identifier: bfs.cu
Done parsing!!!
GPGPU-Sim PTX: __cudaRegisterFunction _Z7Kernel2PbS_S_S_i : hostFun 0x0x401773, fat_cubin_handle = 1
GPGPU-Sim PTX: instruction assembly for function '_Z6KernelP4NodePiPbS2_S2_S1_i'...   done.
GPGPU-Sim PTX: finding reconvergence points for '_Z6KernelP4NodePiPbS2_S2_S1_i'...
GPGPU-Sim PTX: Finding dominators for '_Z6KernelP4NodePiPbS2_S2_S1_i'...
GPGPU-Sim PTX: Finding immediate dominators for '_Z6KernelP4NodePiPbS2_S2_S1_i'...
GPGPU-Sim PTX: Finding postdominators for '_Z6KernelP4NodePiPbS2_S2_S1_i'...
GPGPU-Sim PTX: Finding immediate postdominators for '_Z6KernelP4NodePiPbS2_S2_S1_i'...
GPGPU-Sim PTX: pre-decoding instructions for '_Z6KernelP4NodePiPbS2_S2_S1_i'...
GPGPU-Sim PTX: reconvergence points for _Z6KernelP4NodePiPbS2_S2_S1_i...
GPGPU-Sim PTX:  1 (potential) branch divergence @  PC=0x030 (_1.ptx:73) @%p1 bra $Lt_0_5122;
GPGPU-Sim PTX:    immediate post dominator      @  PC=0x1c0 (_1.ptx:135) exit;
GPGPU-Sim PTX:  2 (potential) branch divergence @  PC=0x068 (_1.ptx:80) @%p2 bra $Lt_0_5122;
GPGPU-Sim PTX:    immediate post dominator      @  PC=0x1c0 (_1.ptx:135) exit;
GPGPU-Sim PTX:  3 (potential) branch divergence @  PC=0x0c0 (_1.ptx:93) @%p3 bra $Lt_0_5122;
GPGPU-Sim PTX:    immediate post dominator      @  PC=0x1c0 (_1.ptx:135) exit;
GPGPU-Sim PTX:  4 (potential) branch divergence @  PC=0x120 (_1.ptx:108) @%p4 bra $Lt_0_4354;
GPGPU-Sim PTX:    immediate post dominator      @  PC=0x1a0 (_1.ptx:128) add.s32 %r10, %r10, 1;
GPGPU-Sim PTX:  5 (potential) branch divergence @  PC=0x1b8 (_1.ptx:131) @%p5 bra $Lt_0_4098;
GPGPU-Sim PTX:    immediate post dominator      @  PC=0x1c0 (_1.ptx:135) exit;
GPGPU-Sim PTX: ... end of reconvergence points for _Z6KernelP4NodePiPbS2_S2_S1_i
GPGPU-Sim PTX: ... done pre-decoding instructions for '_Z6KernelP4NodePiPbS2_S2_S1_i'.
GPGPU-Sim PTX: instruction assembly for function '_Z7Kernel2PbS_S_S_i'...   done.
GPGPU-Sim PTX: finding reconvergence points for '_Z7Kernel2PbS_S_S_i'...
GPGPU-Sim PTX: Finding dominators for '_Z7Kernel2PbS_S_S_i'...
GPGPU-Sim PTX: Finding immediate dominators for '_Z7Kernel2PbS_S_S_i'...
GPGPU-Sim PTX: Finding postdominators for '_Z7Kernel2PbS_S_S_i'...
GPGPU-Sim PTX: Finding immediate postdominators for '_Z7Kernel2PbS_S_S_i'...
GPGPU-Sim PTX: pre-decoding instructions for '_Z7Kernel2PbS_S_S_i'...
GPGPU-Sim PTX: reconvergence points for _Z7Kernel2PbS_S_S_i...
GPGPU-Sim PTX:  1 (potential) branch divergence @  PC=0x1f8 (_1.ptx:157) @%p1 bra $Lt_1_1794;
GPGPU-Sim PTX:    immediate post dominator      @  PC=0x2a0 (_1.ptx:185) exit;
GPGPU-Sim PTX:  2 (potential) branch divergence @  PC=0x230 (_1.ptx:164) @%p2 bra $Lt_1_1794;
GPGPU-Sim PTX:    immediate post dominator      @  PC=0x2a0 (_1.ptx:185) exit;
GPGPU-Sim PTX: ... end of reconvergence points for _Z7Kernel2PbS_S_S_i
GPGPU-Sim PTX: ... done pre-decoding instructions for '_Z7Kernel2PbS_S_S_i'.
GPGPU-Sim PTX: finished parsing EMBEDDED .ptx file _1.ptx
Adding _cuobjdump_1.ptx with cubin handle 1
GPGPU-Sim PTX: extracting embedded .ptx to temporary file "_ptx_7x8aUp"
Running: cat _ptx_7x8aUp | sed 's/.version 1.5/.version 1.4/' | sed 's/, texmode_independent//' | sed 's/\(\.extern \.const\[1\] .b8 \w\+\)\[\]/\1\[1\]/' | sed 's/const\[.\]/const\[0\]/g' > _ptx2_ckq596
GPGPU-Sim PTX: generating ptxinfo using "$CUDA_INSTALL_PATH/bin/ptxas --gpu-name=sm_20 -v _ptx2_ckq596 --output-file  /dev/null 2> _ptx_7x8aUpinfo"
GPGPU-Sim PTX: Kernel '_Z7Kernel2PbS_S_S_i' : regs=12, lmem=0, smem=0, cmem=68
GPGPU-Sim PTX: Kernel '_Z6KernelP4NodePiPbS2_S2_S1_i' : regs=15, lmem=0, smem=0, cmem=84
GPGPU-Sim PTX: removing ptxinfo using "rm -f _ptx_7x8aUp _ptx2_ckq596 _ptx_7x8aUpinfo"
GPGPU-Sim PTX: loading globals with explicit initializers... 
GPGPU-Sim PTX: finished loading globals (0 bytes total).
GPGPU-Sim PTX: loading constants with explicit initializers...  done.
GPGPU-Sim PTX: __cudaRegisterFunction _Z6KernelP4NodePiPbS2_S2_S1_i : hostFun 0x0x401637, fat_cubin_handle = 1
Reading File
Read File
Copied Everything to GPU memory
Start traversing the tree

GPGPU-Sim PTX: cudaLaunch for 0x0x401637 (mode=performance simulation) on stream 0
GPGPU-Sim PTX: pushing kernel '_Z6KernelP4NodePiPbS2_S2_S1_i' to stream 0, gridDim= (1954,1,1) blockDim = (512,1,1) 
kernel '_Z6KernelP4NodePiPbS2_S2_S1_i' transfer to GPU hardware scheduler
GPGPU-Sim uArch: Shader 1 bind to kernel 1 '_Z6KernelP4NodePiPbS2_S2_S1_i'
GPGPU-Sim uArch: CTA/core = 3, limited by: threads
GPGPU-Sim uArch: core:  1, cta: 0 initialized @(1,0)
GPGPU-Sim uArch: Shader 2 bind to kernel 1 '_Z6KernelP4NodePiPbS2_S2_S1_i'
GPGPU-Sim uArch: core:  2, cta: 0 initialized @(1,0)
GPGPU-Sim uArch: Shader 3 bind to kernel 1 '_Z6KernelP4NodePiPbS2_S2_S1_i'
GPGPU-Sim uArch: core:  3, cta: 0 initialized @(1,0)
GPGPU-Sim uArch: Shader 4 bind to kernel 1 '_Z6KernelP4NodePiPbS2_S2_S1_i'
GPGPU-Sim uArch: core:  4, cta: 0 initialized @(1,0)
GPGPU-Sim uArch: Shader 5 bind to kernel 1 '_Z6KernelP4NodePiPbS2_S2_S1_i'
GPGPU-Sim uArch: core:  5, cta: 0 initialized @(1,0)
GPGPU-Sim uArch: Shader 6 bind to kernel 1 '_Z6KernelP4NodePiPbS2_S2_S1_i'
GPGPU-Sim uArch: core:  6, cta: 0 initialized @(1,0)
GPGPU-Sim uArch: Shader 7 bind to kernel 1 '_Z6KernelP4NodePiPbS2_S2_S1_i'
GPGPU-Sim uArch: core:  7, cta: 0 initialized @(1,0)
GPGPU-Sim uArch: Shader 8 bind to kernel 1 '_Z6KernelP4NodePiPbS2_S2_S1_i'
GPGPU-Sim uArch: core:  8, cta: 0 initialized @(1,0)
GPGPU-Sim uArch: Shader 9 bind to kernel 1 '_Z6KernelP4NodePiPbS2_S2_S1_i'
GPGPU-Sim uArch: core:  9, cta: 0 initialized @(1,0)
GPGPU-Sim uArch: Shader 10 bind to kernel 1 '_Z6KernelP4NodePiPbS2_S2_S1_i'
GPGPU-Sim uArch: core: 10, cta: 0 initialized @(1,0)
GPGPU-Sim uArch: Shader 11 bind to kernel 1 '_Z6KernelP4NodePiPbS2_S2_S1_i'
GPGPU-Sim uArch: core: 11, cta: 0 initialized @(1,0)
GPGPU-Sim uArch: Shader 12 bind to kernel 1 '_Z6KernelP4NodePiPbS2_S2_S1_i'
GPGPU-Sim uArch: core: 12, cta: 0 initialized @(1,0)
GPGPU-Sim uArch: Shader 13 bind to kernel 1 '_Z6KernelP4NodePiPbS2_S2_S1_i'
GPGPU-Sim uArch: core: 13, cta: 0 initialized @(1,0)
GPGPU-Sim uArch: Shader 14 bind to kernel 1 '_Z6KernelP4NodePiPbS2_S2_S1_i'
GPGPU-Sim uArch: core: 14, cta: 0 initialized @(1,0)
GPGPU-Sim uArch: Shader 0 bind to kernel 1 '_Z6KernelP4NodePiPbS2_S2_S1_i'
GPGPU-Sim uArch: core:  0, cta: 0 initialized @(1,0)
GPGPU-Sim uArch: core:  1, cta: 1 initialized @(2,0)
GPGPU-Sim uArch: core:  2, cta: 1 initialized @(2,0)
GPGPU-Sim uArch: core:  3, cta: 1 initialized @(2,0)
GPGPU-Sim uArch: core:  4, cta: 1 initialized @(2,0)
GPGPU-Sim uArch: core:  5, cta: 1 initialized @(2,0)
GPGPU-Sim uArch: core:  6, cta: 1 initialized @(2,0)
GPGPU-Sim uArch: core:  7, cta: 1 initialized @(2,0)
GPGPU-Sim uArch: core:  8, cta: 1 initialized @(2,0)
GPGPU-Sim uArch: core:  9, cta: 1 initialized @(2,0)
GPGPU-Sim uArch: core: 10, cta: 1 initialized @(2,0)
GPGPU-Sim uArch: core: 11, cta: 1 initialized @(2,0)
GPGPU-Sim uArch: core: 12, cta: 1 initialized @(2,0)
GPGPU-Sim uArch: core: 13, cta: 1 initialized @(2,0)
GPGPU-Sim uArch: core: 14, cta: 1 initialized @(2,0)
GPGPU-Sim uArch: core:  0, cta: 1 initialized @(2,0)
GPGPU-Sim uArch: core:  1, cta: 2 initialized @(3,0)
GPGPU-Sim uArch: core:  2, cta: 2 initialized @(3,0)
GPGPU-Sim uArch: core:  3, cta: 2 initialized @(3,0)
GPGPU-Sim uArch: core:  4, cta: 2 initialized @(3,0)
GPGPU-Sim uArch: core:  5, cta: 2 initialized @(3,0)
GPGPU-Sim uArch: core:  6, cta: 2 initialized @(3,0)
GPGPU-Sim uArch: core:  7, cta: 2 initialized @(3,0)
GPGPU-Sim uArch: core:  8, cta: 2 initialized @(3,0)
GPGPU-Sim uArch: core:  9, cta: 2 initialized @(3,0)
GPGPU-Sim uArch: core: 10, cta: 2 initialized @(3,0)
GPGPU-Sim uArch: core: 11, cta: 2 initialized @(3,0)
GPGPU-Sim uArch: core: 12, cta: 2 initialized @(3,0)
GPGPU-Sim uArch: core: 13, cta: 2 initialized @(3,0)
GPGPU-Sim uArch: core: 14, cta: 2 initialized @(3,0)
GPGPU-Sim uArch: core:  0, cta: 2 initialized @(3,0)
GPGPU-Sim uArch: cycles simulated: 500  inst.: 15360 (ipc=30.7) sim_rate=1536 (inst/sec) elapsed = 0:0:00:10 / Tue Mar 22 12:46:23 2016
GPGPU-Sim uArch: cycles simulated: 1000  inst.: 49921 (ipc=49.9) sim_rate=4160 (inst/sec) elapsed = 0:0:00:12 / Tue Mar 22 12:46:25 2016
GPGPU-Sim PTX: 100000 instructions simulated : ctaid=(10,0,0) tid=(377,0,0)
GPGPU-Sim uArch: Shader 3 finished CTA #0 (1552,0), 2 CTAs running
GPGPU-Sim uArch: core:  3, cta: 0 initialized @(1553,0)
GPGPU-Sim uArch: Shader 4 finished CTA #0 (1559,0), 2 CTAs running
GPGPU-Sim uArch: core:  4, cta: 0 initialized @(1560,0)
GPGPU-Sim uArch: Shader 5 finished CTA #0 (1564,0), 2 CTAs running
GPGPU-Sim uArch: core:  5, cta: 0 initialized @(1565,0)
GPGPU-Sim uArch: Shader 0 finished CTA #0 (1570,0), 2 CTAs running
GPGPU-Sim uArch: core:  0, cta: 0 initialized @(1571,0)
GPGPU-Sim uArch: Shader 2 finished CTA #0 (1576,0), 2 CTAs running
GPGPU-Sim uArch: core:  2, cta: 0 initialized @(1577,0)
GPGPU-Sim uArch: Shader 6 finished CTA #0 (1582,0), 2 CTAs running
GPGPU-Sim uArch: core:  6, cta: 0 initialized @(1583,0)
GPGPU-Sim uArch: Shader 7 finished CTA #0 (1584,0), 2 CTAs running
GPGPU-Sim uArch: core:  7, cta: 0 initialized @(1585,0)
GPGPU-Sim uArch: Shader 8 finished CTA #0 (1594,0), 2 CTAs running
GPGPU-Sim uArch: core:  8, cta: 0 initialized @(1595,0)
GPGPU-Sim uArch: Shader 9 finished CTA #0 (1602,0), 2 CTAs running
GPGPU-Sim uArch: Shader 10 finished CTA #0 (1602,0), 2 CTAs running
GPGPU-Sim uArch: core:  9, cta: 0 initialized @(1603,0)
GPGPU-Sim uArch: core: 10, cta: 0 initialized @(1603,0)
GPGPU-Sim uArch: Shader 11 finished CTA #0 (1608,0), 2 CTAs running
GPGPU-Sim uArch: core: 11, cta: 0 initialized @(1609,0)
GPGPU-Sim uArch: Shader 12 finished CTA #0 (1614,0), 2 CTAs running
GPGPU-Sim uArch: core: 12, cta: 0 initialized @(1615,0)
GPGPU-Sim uArch: Shader 13 finished CTA #0 (1617,0), 2 CTAs running
GPGPU-Sim uArch: core: 13, cta: 0 initialized @(1618,0)
GPGPU-Sim uArch: Shader 14 finished CTA #0 (1626,0), 2 CTAs running
GPGPU-Sim uArch: core: 14, cta: 0 initialized @(1627,0)
GPGPU-Sim PTX: 200000 instructions simulated : ctaid=(26,0,0) tid=(333,0,0)
GPGPU-Sim uArch: Shader 3 finished CTA #1 (2255,0), 2 CTAs running
GPGPU-Sim uArch: core:  3, cta: 1 initialized @(2256,0)
GPGPU-Sim uArch: Shader 4 finished CTA #1 (2267,0), 2 CTAs running
GPGPU-Sim uArch: Shader 5 finished CTA #1 (2267,0), 2 CTAs running
GPGPU-Sim uArch: core:  4, cta: 1 initialized @(2268,0)
GPGPU-Sim uArch: core:  5, cta: 1 initialized @(2268,0)
GPGPU-Sim uArch: Shader 2 finished CTA #1 (2279,0), 2 CTAs running
GPGPU-Sim uArch: core:  2, cta: 1 initialized @(2280,0)
GPGPU-Sim uArch: Shader 0 finished CTA #1 (2280,0), 2 CTAs running
GPGPU-Sim uArch: core:  0, cta: 1 initialized @(2281,0)
GPGPU-Sim uArch: Shader 6 finished CTA #1 (2286,0), 2 CTAs running
GPGPU-Sim uArch: core:  6, cta: 1 initialized @(2287,0)
GPGPU-Sim uArch: Shader 8 finished CTA #1 (2287,0), 2 CTAs running
GPGPU-Sim uArch: core:  8, cta: 1 initialized @(2288,0)
GPGPU-Sim uArch: Shader 7 finished CTA #1 (2291,0), 2 CTAs running
GPGPU-Sim uArch: core:  7, cta: 1 initialized @(2292,0)
GPGPU-Sim uArch: Shader 10 finished CTA #1 (2293,0), 2 CTAs running
GPGPU-Sim uArch: core: 10, cta: 1 initialized @(2294,0)
GPGPU-Sim uArch: Shader 9 finished CTA #1 (2296,0), 2 CTAs running
GPGPU-Sim uArch: core:  9, cta: 1 initialized @(2297,0)
GPGPU-Sim uArch: Shader 11 finished CTA #1 (2300,0), 2 CTAs running
GPGPU-Sim uArch: core: 11, cta: 1 initialized @(2301,0)
GPGPU-Sim uArch: Shader 12 finished CTA #1 (2305,0), 2 CTAs running
GPGPU-Sim uArch: core: 12, cta: 1 initialized @(2306,0)
GPGPU-Sim uArch: Shader 13 finished CTA #1 (2306,0), 2 CTAs running
GPGPU-Sim uArch: core: 13, cta: 1 initialized @(2307,0)
GPGPU-Sim uArch: Shader 14 finished CTA #1 (2320,0), 2 CTAs running
GPGPU-Sim uArch: core: 14, cta: 1 initialized @(2321,0)
GPGPU-Sim uArch: Shader 1 finished CTA #1 (2338,0), 2 CTAs running
GPGPU-Sim uArch: core:  1, cta: 1 initialized @(2339,0)
GPGPU-Sim uArch: cycles simulated: 2500  inst.: 253111 (ipc=101.2) sim_rate=19470 (inst/sec) elapsed = 0:0:00:13 / Tue Mar 22 12:46:26 2016
GPGPU-Sim PTX: 300000 instructions simulated : ctaid=(35,0,0) tid=(292,0,0)
GPGPU-Sim uArch: Shader 3 finished CTA #2 (2942,0), 2 CTAs running
GPGPU-Sim uArch: core:  3, cta: 2 initialized @(2943,0)
GPGPU-Sim uArch: Shader 5 finished CTA #2 (2959,0), 2 CTAs running
GPGPU-Sim uArch: core:  5, cta: 2 initialized @(2960,0)
GPGPU-Sim uArch: Shader 0 finished CTA #2 (2967,0), 2 CTAs running
GPGPU-Sim uArch: core:  0, cta: 2 initialized @(2968,0)
GPGPU-Sim uArch: Shader 4 finished CTA #2 (2974,0), 2 CTAs running
GPGPU-Sim uArch: core:  4, cta: 2 initialized @(2975,0)
GPGPU-Sim uArch: Shader 6 finished CTA #2 (2975,0), 2 CTAs running
GPGPU-Sim uArch: core:  6, cta: 2 initialized @(2976,0)
GPGPU-Sim uArch: Shader 8 finished CTA #2 (2981,0), 2 CTAs running
GPGPU-Sim uArch: core:  8, cta: 2 initialized @(2982,0)
GPGPU-Sim uArch: Shader 2 finished CTA #2 (2988,0), 2 CTAs running
GPGPU-Sim uArch: core:  2, cta: 2 initialized @(2989,0)
GPGPU-Sim uArch: Shader 7 finished CTA #2 (2989,0), 2 CTAs running
GPGPU-Sim uArch: Shader 9 finished CTA #2 (2989,0), 2 CTAs running
GPGPU-Sim uArch: core:  7, cta: 2 initialized @(2990,0)
GPGPU-Sim uArch: core:  9, cta: 2 initialized @(2990,0)
GPGPU-Sim uArch: Shader 11 finished CTA #2 (2990,0), 2 CTAs running
GPGPU-Sim uArch: core: 11, cta: 2 initialized @(2991,0)
GPGPU-Sim uArch: Shader 10 finished CTA #2 (2992,0), 2 CTAs running
GPGPU-Sim uArch: core: 10, cta: 2 initialized @(2993,0)
GPGPU-Sim uArch: Shader 13 finished CTA #2 (2996,0), 2 CTAs running
GPGPU-Sim uArch: core: 13, cta: 2 initialized @(2997,0)
GPGPU-Sim uArch: Shader 12 finished CTA #2 (3001,0), 2 CTAs running
GPGPU-Sim uArch: core: 12, cta: 2 initialized @(3002,0)
GPGPU-Sim uArch: Shader 14 finished CTA #2 (3007,0), 2 CTAs running
GPGPU-Sim uArch: core: 14, cta: 2 initialized @(3008,0)
GPGPU-Sim uArch: Shader 1 finished CTA #2 (3031,0), 2 CTAs running
GPGPU-Sim uArch: core:  1, cta: 2 initialized @(3032,0)
GPGPU-Sim PTX: 400000 instructions simulated : ctaid=(53,0,0) tid=(259,0,0)
GPGPU-Sim uArch: Shader 3 finished CTA #0 (3632,0), 2 CTAs running
GPGPU-Sim uArch: core:  3, cta: 0 initialized @(3633,0)
GPGPU-Sim uArch: Shader 5 finished CTA #0 (3650,0), 2 CTAs running
GPGPU-Sim uArch: core:  5, cta: 0 initialized @(3651,0)
GPGPU-Sim uArch: Shader 4 finished CTA #0 (3657,0), 2 CTAs running
GPGPU-Sim uArch: core:  4, cta: 0 initialized @(3658,0)
GPGPU-Sim uArch: Shader 0 finished CTA #0 (3658,0), 2 CTAs running
GPGPU-Sim uArch: core:  0, cta: 0 initialized @(3659,0)
GPGPU-Sim uArch: Shader 8 finished CTA #0 (3673,0), 2 CTAs running
GPGPU-Sim uArch: core:  8, cta: 0 initialized @(3674,0)
GPGPU-Sim uArch: Shader 6 finished CTA #0 (3676,0), 2 CTAs running
GPGPU-Sim uArch: core:  6, cta: 0 initialized @(3677,0)
GPGPU-Sim uArch: Shader 2 finished CTA #0 (3677,0), 2 CTAs running
GPGPU-Sim uArch: core:  2, cta: 0 initialized @(3678,0)
GPGPU-Sim uArch: Shader 9 finished CTA #0 (3678,0), 2 CTAs running
GPGPU-Sim uArch: core:  9, cta: 0 initialized @(3679,0)
GPGPU-Sim uArch: Shader 7 finished CTA #0 (3681,0), 2 CTAs running
GPGPU-Sim uArch: core:  7, cta: 0 initialized @(3682,0)
GPGPU-Sim uArch: Shader 10 finished CTA #0 (3684,0), 2 CTAs running
GPGPU-Sim uArch: core: 10, cta: 0 initialized @(3685,0)
GPGPU-Sim uArch: Shader 13 finished CTA #0 (3687,0), 2 CTAs running
GPGPU-Sim uArch: core: 13, cta: 0 initialized @(3688,0)
GPGPU-Sim uArch: Shader 12 finished CTA #0 (3688,0), 2 CTAs running
GPGPU-Sim uArch: core: 12, cta: 0 initialized @(3689,0)
GPGPU-Sim uArch: Shader 11 finished CTA #0 (3690,0), 2 CTAs running
GPGPU-Sim uArch: core: 11, cta: 0 initialized @(3691,0)
GPGPU-Sim uArch: Shader 14 finished CTA #0 (3700,0), 2 CTAs running
GPGPU-Sim uArch: core: 14, cta: 0 initialized @(3701,0)
GPGPU-Sim uArch: Shader 1 finished CTA #1 (3710,0), 2 CTAs running
GPGPU-Sim uArch: core:  1, cta: 1 initialized @(3711,0)
GPGPU-Sim PTX: 500000 instructions simulated : ctaid=(71,0,0) tid=(167,0,0)
GPGPU-Sim uArch: cycles simulated: 4000  inst.: 485912 (ipc=121.5) sim_rate=34708 (inst/sec) elapsed = 0:0:00:14 / Tue Mar 22 12:46:27 2016
GPGPU-Sim uArch: Shader 1 finished CTA #0 (4010,0), 2 CTAs running
GPGPU-Sim uArch: core:  1, cta: 0 initialized @(4011,0)
GPGPU-Sim uArch: Shader 3 finished CTA #1 (4325,0), 2 CTAs running
GPGPU-Sim uArch: core:  3, cta: 1 initialized @(4326,0)
GPGPU-Sim uArch: Shader 1 finished CTA #2 (4330,0), 2 CTAs running
GPGPU-Sim uArch: Shader 5 finished CTA #1 (4330,0), 2 CTAs running
GPGPU-Sim uArch: core:  5, cta: 1 initialized @(4331,0)
GPGPU-Sim uArch: core:  1, cta: 2 initialized @(4331,0)
GPGPU-Sim uArch: Shader 4 finished CTA #1 (4337,0), 2 CTAs running
GPGPU-Sim uArch: core:  4, cta: 1 initialized @(4338,0)
GPGPU-Sim uArch: Shader 0 finished CTA #1 (4350,0), 2 CTAs running
GPGPU-Sim uArch: core:  0, cta: 1 initialized @(4351,0)
GPGPU-Sim uArch: Shader 9 finished CTA #1 (4352,0), 2 CTAs running
GPGPU-Sim uArch: core:  9, cta: 1 initialized @(4353,0)
GPGPU-Sim uArch: Shader 6 finished CTA #1 (4358,0), 2 CTAs running
GPGPU-Sim uArch: core:  6, cta: 1 initialized @(4359,0)
GPGPU-Sim uArch: Shader 8 finished CTA #1 (4362,0), 2 CTAs running
GPGPU-Sim uArch: core:  8, cta: 1 initialized @(4363,0)
GPGPU-Sim PTX: 600000 instructions simulated : ctaid=(84,0,0) tid=(129,0,0)
GPGPU-Sim uArch: Shader 2 finished CTA #1 (4373,0), 2 CTAs running
GPGPU-Sim uArch: core:  2, cta: 1 initialized @(4374,0)
GPGPU-Sim uArch: Shader 7 finished CTA #1 (4374,0), 2 CTAs running
GPGPU-Sim uArch: Shader 10 finished CTA #1 (4374,0), 2 CTAs running
GPGPU-Sim uArch: core:  7, cta: 1 initialized @(4375,0)
GPGPU-Sim uArch: core: 10, cta: 1 initialized @(4375,0)
GPGPU-Sim uArch: Shader 11 finished CTA #1 (4378,0), 2 CTAs running
GPGPU-Sim uArch: core: 11, cta: 1 initialized @(4379,0)
GPGPU-Sim uArch: Shader 13 finished CTA #1 (4380,0), 2 CTAs running
GPGPU-Sim uArch: core: 13, cta: 1 initialized @(4381,0)
GPGPU-Sim uArch: Shader 12 finished CTA #1 (4382,0), 2 CTAs running
GPGPU-Sim uArch: core: 12, cta: 1 initialized @(4383,0)
GPGPU-Sim uArch: Shader 14 finished CTA #1 (4401,0), 2 CTAs running
GPGPU-Sim uArch: core: 14, cta: 1 initialized @(4402,0)
GPGPU-Sim uArch: Shader 5 finished CTA #2 (5005,0), 2 CTAs running
GPGPU-Sim uArch: core:  5, cta: 2 initialized @(5006,0)
GPGPU-Sim uArch: Shader 4 finished CTA #2 (5013,0), 2 CTAs running
GPGPU-Sim uArch: core:  4, cta: 2 initialized @(5014,0)
GPGPU-Sim PTX: 700000 instructions simulated : ctaid=(83,0,0) tid=(257,0,0)
GPGPU-Sim uArch: Shader 1 finished CTA #1 (5020,0), 2 CTAs running
GPGPU-Sim uArch: core:  1, cta: 1 initialized @(5021,0)
GPGPU-Sim uArch: Shader 3 finished CTA #2 (5024,0), 2 CTAs running
GPGPU-Sim uArch: core:  3, cta: 2 initialized @(5025,0)
GPGPU-Sim uArch: Shader 0 finished CTA #2 (5030,0), 2 CTAs running
GPGPU-Sim uArch: core:  0, cta: 2 initialized @(5031,0)
GPGPU-Sim uArch: Shader 9 finished CTA #2 (5032,0), 2 CTAs running
GPGPU-Sim uArch: core:  9, cta: 2 initialized @(5033,0)
GPGPU-Sim uArch: Shader 6 finished CTA #2 (5036,0), 2 CTAs running
GPGPU-Sim uArch: core:  6, cta: 2 initialized @(5037,0)
GPGPU-Sim uArch: Shader 8 finished CTA #2 (5042,0), 2 CTAs running
GPGPU-Sim uArch: core:  8, cta: 2 initialized @(5043,0)
GPGPU-Sim uArch: Shader 7 finished CTA #2 (5053,0), 2 CTAs running
GPGPU-Sim uArch: core:  7, cta: 2 initialized @(5054,0)
GPGPU-Sim uArch: Shader 2 finished CTA #2 (5055,0), 2 CTAs running
GPGPU-Sim uArch: core:  2, cta: 2 initialized @(5056,0)
GPGPU-Sim uArch: Shader 10 finished CTA #2 (5060,0), 2 CTAs running
GPGPU-Sim uArch: core: 10, cta: 2 initialized @(5061,0)
GPGPU-Sim uArch: Shader 11 finished CTA #2 (5071,0), 2 CTAs running
GPGPU-Sim uArch: core: 11, cta: 2 initialized @(5072,0)
GPGPU-Sim uArch: Shader 12 finished CTA #2 (5073,0), 2 CTAs running
GPGPU-Sim uArch: core: 12, cta: 2 initialized @(5074,0)
GPGPU-Sim uArch: Shader 13 finished CTA #2 (5079,0), 2 CTAs running
GPGPU-Sim uArch: core: 13, cta: 2 initialized @(5080,0)
GPGPU-Sim uArch: Shader 14 finished CTA #2 (5086,0), 2 CTAs running
GPGPU-Sim uArch: core: 14, cta: 2 initialized @(5087,0)
GPGPU-Sim uArch: cycles simulated: 5500  inst.: 737368 (ipc=134.1) sim_rate=49157 (inst/sec) elapsed = 0:0:00:15 / Tue Mar 22 12:46:28 2016
GPGPU-Sim PTX: 800000 instructions simulated : ctaid=(106,0,0) tid=(33,0,0)
GPGPU-Sim uArch: Shader 5 finished CTA #0 (5680,0), 2 CTAs running
GPGPU-Sim uArch: core:  5, cta: 0 initialized @(5681,0)
GPGPU-Sim uArch: Shader 4 finished CTA #0 (5688,0), 2 CTAs running
GPGPU-Sim uArch: core:  4, cta: 0 initialized @(5689,0)
GPGPU-Sim uArch: Shader 9 finished CTA #0 (5702,0), 2 CTAs running
GPGPU-Sim uArch: core:  9, cta: 0 initialized @(5703,0)
GPGPU-Sim uArch: Shader 3 finished CTA #0 (5704,0), 2 CTAs running
GPGPU-Sim uArch: core:  3, cta: 0 initialized @(5705,0)
GPGPU-Sim uArch: Shader 6 finished CTA #0 (5705,0), 2 CTAs running
GPGPU-Sim uArch: core:  6, cta: 0 initialized @(5706,0)
GPGPU-Sim uArch: Shader 8 finished CTA #0 (5715,0), 2 CTAs running
GPGPU-Sim uArch: core:  8, cta: 0 initialized @(5716,0)
GPGPU-Sim uArch: Shader 1 finished CTA #0 (5725,0), 2 CTAs running
GPGPU-Sim uArch: core:  1, cta: 0 initialized @(5726,0)
GPGPU-Sim uArch: Shader 7 finished CTA #0 (5726,0), 2 CTAs running
GPGPU-Sim uArch: core:  7, cta: 0 initialized @(5727,0)
GPGPU-Sim uArch: Shader 2 finished CTA #0 (5734,0), 2 CTAs running
GPGPU-Sim uArch: core:  2, cta: 0 initialized @(5735,0)
GPGPU-Sim uArch: Shader 0 finished CTA #0 (5735,0), 2 CTAs running
GPGPU-Sim uArch: core:  0, cta: 0 initialized @(5736,0)
GPGPU-Sim uArch: Shader 12 finished CTA #0 (5746,0), 2 CTAs running
GPGPU-Sim uArch: core: 12, cta: 0 initialized @(5747,0)
GPGPU-Sim uArch: Shader 11 finished CTA #0 (5755,0), 2 CTAs running
GPGPU-Sim uArch: core: 11, cta: 0 initialized @(5756,0)
GPGPU-Sim uArch: Shader 13 finished CTA #0 (5757,0), 2 CTAs running
GPGPU-Sim uArch: core: 13, cta: 0 initialized @(5758,0)
GPGPU-Sim uArch: Shader 10 finished CTA #0 (5763,0), 2 CTAs running
GPGPU-Sim uArch: core: 10, cta: 0 initialized @(5764,0)
GPGPU-Sim uArch: Shader 14 finished CTA #0 (5768,0), 2 CTAs running
GPGPU-Sim uArch: core: 14, cta: 0 initialized @(5769,0)
GPGPU-Sim PTX: 900000 instructions simulated : ctaid=(109,0,0) tid=(353,0,0)
GPGPU-Sim uArch: Shader 5 finished CTA #1 (6353,0), 2 CTAs running
GPGPU-Sim uArch: core:  5, cta: 1 initialized @(6354,0)
GPGPU-Sim uArch: Shader 4 finished CTA #1 (6361,0), 2 CTAs running
GPGPU-Sim uArch: core:  4, cta: 1 initialized @(6362,0)
GPGPU-Sim uArch: Shader 3 finished CTA #1 (6373,0), 2 CTAs running
GPGPU-Sim uArch: core:  3, cta: 1 initialized @(6374,0)
GPGPU-Sim uArch: Shader 9 finished CTA #1 (6375,0), 2 CTAs running
GPGPU-Sim uArch: core:  9, cta: 1 initialized @(6376,0)
GPGPU-Sim uArch: Shader 6 finished CTA #1 (6379,0), 2 CTAs running
GPGPU-Sim uArch: core:  6, cta: 1 initialized @(6380,0)
GPGPU-Sim uArch: Shader 8 finished CTA #1 (6386,0), 2 CTAs running
GPGPU-Sim uArch: core:  8, cta: 1 initialized @(6387,0)
GPGPU-Sim uArch: Shader 7 finished CTA #1 (6396,0), 2 CTAs running
GPGPU-Sim uArch: core:  7, cta: 1 initialized @(6397,0)
GPGPU-Sim uArch: Shader 1 finished CTA #2 (6403,0), 2 CTAs running
GPGPU-Sim uArch: core:  1, cta: 2 initialized @(6404,0)
GPGPU-Sim uArch: Shader 2 finished CTA #1 (6409,0), 2 CTAs running
GPGPU-Sim uArch: core:  2, cta: 1 initialized @(6410,0)
GPGPU-Sim uArch: Shader 12 finished CTA #1 (6418,0), 2 CTAs running
GPGPU-Sim uArch: core: 12, cta: 1 initialized @(6419,0)
GPGPU-Sim uArch: Shader 0 finished CTA #1 (6427,0), 2 CTAs running
GPGPU-Sim uArch: core:  0, cta: 1 initialized @(6428,0)
GPGPU-Sim uArch: Shader 13 finished CTA #1 (6433,0), 2 CTAs running
GPGPU-Sim uArch: core: 13, cta: 1 initialized @(6434,0)
GPGPU-Sim uArch: Shader 11 finished CTA #1 (6435,0), 2 CTAs running
GPGPU-Sim uArch: core: 11, cta: 1 initialized @(6436,0)
GPGPU-Sim uArch: Shader 10 finished CTA #1 (6446,0), 2 CTAs running
GPGPU-Sim uArch: core: 10, cta: 1 initialized @(6447,0)
GPGPU-Sim uArch: Shader 14 finished CTA #1 (6449,0), 2 CTAs running
GPGPU-Sim uArch: core: 14, cta: 1 initialized @(6450,0)
GPGPU-Sim PTX: 1000000 instructions simulated : ctaid=(122,0,0) tid=(417,0,0)
GPGPU-Sim uArch: cycles simulated: 7000  inst.: 961016 (ipc=137.3) sim_rate=60063 (inst/sec) elapsed = 0:0:00:16 / Tue Mar 22 12:46:29 2016
GPGPU-Sim uArch: Shader 5 finished CTA #2 (7027,0), 2 CTAs running
GPGPU-Sim uArch: core:  5, cta: 2 initialized @(7028,0)
GPGPU-Sim uArch: Shader 4 finished CTA #2 (7033,0), 2 CTAs running
GPGPU-Sim uArch: core:  4, cta: 2 initialized @(7034,0)
GPGPU-Sim uArch: Shader 3 finished CTA #2 (7042,0), 2 CTAs running
GPGPU-Sim uArch: core:  3, cta: 2 initialized @(7043,0)
GPGPU-Sim uArch: Shader 6 finished CTA #2 (7048,0), 2 CTAs running
GPGPU-Sim uArch: core:  6, cta: 2 initialized @(7049,0)
GPGPU-Sim uArch: Shader 9 finished CTA #2 (7050,0), 2 CTAs running
GPGPU-Sim uArch: core:  9, cta: 2 initialized @(7051,0)
GPGPU-Sim uArch: Shader 8 finished CTA #2 (7066,0), 2 CTAs running
GPGPU-Sim uArch: core:  8, cta: 2 initialized @(7067,0)
GPGPU-Sim uArch: Shader 7 finished CTA #2 (7070,0), 2 CTAs running
GPGPU-Sim uArch: core:  7, cta: 2 initialized @(7071,0)
GPGPU-Sim uArch: Shader 1 finished CTA #1 (7075,0), 2 CTAs running
GPGPU-Sim uArch: core:  1, cta: 1 initialized @(7076,0)
GPGPU-Sim uArch: Shader 2 finished CTA #2 (7086,0), 2 CTAs running
GPGPU-Sim uArch: core:  2, cta: 2 initialized @(7087,0)
GPGPU-Sim uArch: Shader 12 finished CTA #2 (7089,0), 2 CTAs running
GPGPU-Sim uArch: core: 12, cta: 2 initialized @(7090,0)
GPGPU-Sim uArch: Shader 13 finished CTA #2 (7109,0), 2 CTAs running
GPGPU-Sim uArch: core: 13, cta: 2 initialized @(7110,0)
GPGPU-Sim uArch: Shader 11 finished CTA #2 (7110,0), 2 CTAs running
GPGPU-Sim uArch: core: 11, cta: 2 initialized @(7111,0)
GPGPU-Sim uArch: Shader 0 finished CTA #2 (7112,0), 2 CTAs running
GPGPU-Sim uArch: core:  0, cta: 2 initialized @(7113,0)
GPGPU-Sim uArch: Shader 14 finished CTA #2 (7124,0), 2 CTAs running
GPGPU-Sim uArch: core: 14, cta: 2 initialized @(7125,0)
GPGPU-Sim uArch: Shader 10 finished CTA #2 (7125,0), 2 CTAs running
GPGPU-Sim uArch: core: 10, cta: 2 initialized @(7126,0)
GPGPU-Sim PTX: 1100000 instructions simulated : ctaid=(146,0,0) tid=(33,0,0)
GPGPU-Sim uArch: Shader 5 finished CTA #0 (7700,0), 2 CTAs running
GPGPU-Sim uArch: core:  5, cta: 0 initialized @(7701,0)
GPGPU-Sim uArch: Shader 4 finished CTA #0 (7705,0), 2 CTAs running
GPGPU-Sim uArch: core:  4, cta: 0 initialized @(7706,0)
GPGPU-Sim uArch: Shader 3 finished CTA #0 (7711,0), 2 CTAs running
GPGPU-Sim uArch: core:  3, cta: 0 initialized @(7712,0)
GPGPU-Sim uArch: Shader 6 finished CTA #0 (7717,0), 2 CTAs running
GPGPU-Sim uArch: core:  6, cta: 0 initialized @(7718,0)
GPGPU-Sim uArch: Shader 9 finished CTA #0 (7726,0), 2 CTAs running
GPGPU-Sim uArch: core:  9, cta: 0 initialized @(7727,0)
GPGPU-Sim uArch: Shader 8 finished CTA #0 (7736,0), 2 CTAs running
GPGPU-Sim uArch: core:  8, cta: 0 initialized @(7737,0)
GPGPU-Sim uArch: Shader 1 finished CTA #0 (7750,0), 2 CTAs running
GPGPU-Sim uArch: core:  1, cta: 0 initialized @(7751,0)
GPGPU-Sim uArch: Shader 7 finished CTA #0 (7751,0), 2 CTAs running
GPGPU-Sim uArch: core:  7, cta: 0 initialized @(7752,0)
GPGPU-Sim uArch: Shader 12 finished CTA #0 (7761,0), 2 CTAs running
GPGPU-Sim uArch: core: 12, cta: 0 initialized @(7762,0)
GPGPU-Sim uArch: Shader 2 finished CTA #0 (7767,0), 2 CTAs running
GPGPU-Sim uArch: core:  2, cta: 0 initialized @(7768,0)
GPGPU-Sim uArch: Shader 13 finished CTA #0 (7782,0), 2 CTAs running
GPGPU-Sim uArch: core: 13, cta: 0 initialized @(7783,0)
GPGPU-Sim uArch: Shader 11 finished CTA #0 (7784,0), 2 CTAs running
GPGPU-Sim uArch: core: 11, cta: 0 initialized @(7785,0)
GPGPU-Sim uArch: Shader 14 finished CTA #0 (7794,0), 2 CTAs running
GPGPU-Sim uArch: core: 14, cta: 0 initialized @(7795,0)
GPGPU-Sim uArch: Shader 0 finished CTA #0 (7799,0), 2 CTAs running
GPGPU-Sim uArch: core:  0, cta: 0 initialized @(7800,0)
GPGPU-Sim uArch: Shader 10 finished CTA #0 (7808,0), 2 CTAs running
GPGPU-Sim uArch: core: 10, cta: 0 initialized @(7809,0)
GPGPU-Sim PTX: 1200000 instructions simulated : ctaid=(152,0,0) tid=(1,0,0)
GPGPU-Sim uArch: Shader 4 finished CTA #1 (8378,0), 2 CTAs running
GPGPU-Sim uArch: core:  4, cta: 1 initialized @(8379,0)
GPGPU-Sim uArch: Shader 3 finished CTA #1 (8380,0), 2 CTAs running
GPGPU-Sim uArch: core:  3, cta: 1 initialized @(8381,0)
GPGPU-Sim uArch: Shader 5 finished CTA #1 (8381,0), 2 CTAs running
GPGPU-Sim uArch: core:  5, cta: 1 initialized @(8382,0)
GPGPU-Sim uArch: Shader 6 finished CTA #1 (8386,0), 2 CTAs running
GPGPU-Sim uArch: core:  6, cta: 1 initialized @(8387,0)
GPGPU-Sim uArch: Shader 9 finished CTA #1 (8395,0), 2 CTAs running
GPGPU-Sim uArch: core:  9, cta: 1 initialized @(8396,0)
GPGPU-Sim uArch: Shader 8 finished CTA #1 (8409,0), 2 CTAs running
GPGPU-Sim uArch: core:  8, cta: 1 initialized @(8410,0)
GPGPU-Sim uArch: Shader 1 finished CTA #2 (8421,0), 2 CTAs running
GPGPU-Sim uArch: core:  1, cta: 2 initialized @(8422,0)
GPGPU-Sim uArch: Shader 7 finished CTA #1 (8427,0), 2 CTAs running
GPGPU-Sim uArch: core:  7, cta: 1 initialized @(8428,0)
GPGPU-Sim uArch: Shader 12 finished CTA #1 (8433,0), 2 CTAs running
GPGPU-Sim uArch: core: 12, cta: 1 initialized @(8434,0)
GPGPU-Sim uArch: Shader 2 finished CTA #1 (8442,0), 2 CTAs running
GPGPU-Sim uArch: core:  2, cta: 1 initialized @(8443,0)
GPGPU-Sim PTX: 1300000 instructions simulated : ctaid=(172,0,0) tid=(129,0,0)
GPGPU-Sim uArch: Shader 11 finished CTA #1 (8455,0), 2 CTAs running
GPGPU-Sim uArch: Shader 13 finished CTA #1 (8455,0), 2 CTAs running
GPGPU-Sim uArch: core: 11, cta: 1 initialized @(8456,0)
GPGPU-Sim uArch: core: 13, cta: 1 initialized @(8456,0)
GPGPU-Sim uArch: Shader 14 finished CTA #1 (8461,0), 2 CTAs running
GPGPU-Sim uArch: core: 14, cta: 1 initialized @(8462,0)
GPGPU-Sim uArch: Shader 0 finished CTA #1 (8479,0), 2 CTAs running
GPGPU-Sim uArch: core:  0, cta: 1 initialized @(8480,0)
GPGPU-Sim uArch: Shader 10 finished CTA #1 (8484,0), 2 CTAs running
GPGPU-Sim uArch: core: 10, cta: 1 initialized @(8485,0)
GPGPU-Sim uArch: cycles simulated: 8500  inst.: 1218296 (ipc=143.3) sim_rate=71664 (inst/sec) elapsed = 0:0:00:17 / Tue Mar 22 12:46:30 2016
GPGPU-Sim uArch: Shader 3 finished CTA #2 (9049,0), 2 CTAs running
GPGPU-Sim uArch: core:  3, cta: 2 initialized @(9050,0)
GPGPU-Sim uArch: Shader 4 finished CTA #2 (9051,0), 2 CTAs running
GPGPU-Sim uArch: core:  4, cta: 2 initialized @(9052,0)
GPGPU-Sim uArch: Shader 6 finished CTA #2 (9055,0), 2 CTAs running
GPGPU-Sim uArch: core:  6, cta: 2 initialized @(9056,0)
GPGPU-Sim uArch: Shader 5 finished CTA #2 (9061,0), 2 CTAs running
GPGPU-Sim uArch: core:  5, cta: 2 initialized @(9062,0)
GPGPU-Sim uArch: Shader 9 finished CTA #2 (9064,0), 2 CTAs running
GPGPU-Sim uArch: core:  9, cta: 2 initialized @(9065,0)
GPGPU-Sim PTX: 1400000 instructions simulated : ctaid=(191,0,0) tid=(65,0,0)
GPGPU-Sim uArch: Shader 8 finished CTA #2 (9086,0), 2 CTAs running
GPGPU-Sim uArch: core:  8, cta: 2 initialized @(9087,0)
GPGPU-Sim uArch: Shader 1 finished CTA #1 (9089,0), 2 CTAs running
GPGPU-Sim uArch: core:  1, cta: 1 initialized @(9090,0)
GPGPU-Sim uArch: Shader 7 finished CTA #2 (9100,0), 2 CTAs running
GPGPU-Sim uArch: core:  7, cta: 2 initialized @(9101,0)
GPGPU-Sim uArch: Shader 12 finished CTA #2 (9105,0), 2 CTAs running
GPGPU-Sim uArch: core: 12, cta: 2 initialized @(9106,0)
GPGPU-Sim uArch: Shader 2 finished CTA #2 (9111,0), 2 CTAs running
GPGPU-Sim uArch: core:  2, cta: 2 initialized @(9112,0)
GPGPU-Sim uArch: Shader 11 finished CTA #2 (9128,0), 2 CTAs running
GPGPU-Sim uArch: core: 11, cta: 2 initialized @(9129,0)
GPGPU-Sim uArch: Shader 14 finished CTA #2 (9130,0), 2 CTAs running
GPGPU-Sim uArch: core: 14, cta: 2 initialized @(9131,0)
GPGPU-Sim uArch: Shader 13 finished CTA #2 (9134,0), 2 CTAs running
GPGPU-Sim uArch: core: 13, cta: 2 initialized @(9135,0)
GPGPU-Sim uArch: Shader 0 finished CTA #2 (9153,0), 2 CTAs running
GPGPU-Sim uArch: core:  0, cta: 2 initialized @(9154,0)
GPGPU-Sim uArch: Shader 10 finished CTA #2 (9163,0), 2 CTAs running
GPGPU-Sim uArch: core: 10, cta: 2 initialized @(9164,0)
GPGPU-Sim PTX: 1500000 instructions simulated : ctaid=(199,0,0) tid=(97,0,0)
GPGPU-Sim uArch: Shader 3 finished CTA #0 (9718,0), 2 CTAs running
GPGPU-Sim uArch: core:  3, cta: 0 initialized @(9719,0)
GPGPU-Sim uArch: Shader 4 finished CTA #0 (9724,0), 2 CTAs running
GPGPU-Sim uArch: core:  4, cta: 0 initialized @(9725,0)
GPGPU-Sim uArch: Shader 6 finished CTA #0 (9730,0), 2 CTAs running
GPGPU-Sim uArch: core:  6, cta: 0 initialized @(9731,0)
GPGPU-Sim uArch: Shader 9 finished CTA #0 (9733,0), 2 CTAs running
GPGPU-Sim uArch: core:  9, cta: 0 initialized @(9734,0)
GPGPU-Sim uArch: Shader 5 finished CTA #0 (9735,0), 2 CTAs running
GPGPU-Sim uArch: core:  5, cta: 0 initialized @(9736,0)
GPGPU-Sim uArch: Shader 8 finished CTA #0 (9756,0), 2 CTAs running
GPGPU-Sim uArch: core:  8, cta: 0 initialized @(9757,0)
GPGPU-Sim uArch: Shader 1 finished CTA #0 (9758,0), 2 CTAs running
GPGPU-Sim uArch: core:  1, cta: 0 initialized @(9759,0)
GPGPU-Sim uArch: Shader 7 finished CTA #0 (9775,0), 2 CTAs running
GPGPU-Sim uArch: core:  7, cta: 0 initialized @(9776,0)
GPGPU-Sim uArch: Shader 12 finished CTA #0 (9778,0), 2 CTAs running
GPGPU-Sim uArch: core: 12, cta: 0 initialized @(9779,0)
GPGPU-Sim uArch: Shader 2 finished CTA #0 (9780,0), 2 CTAs running
GPGPU-Sim uArch: core:  2, cta: 0 initialized @(9781,0)
GPGPU-Sim uArch: Shader 14 finished CTA #0 (9799,0), 2 CTAs running
GPGPU-Sim uArch: core: 14, cta: 0 initialized @(9800,0)
GPGPU-Sim uArch: Shader 11 finished CTA #0 (9801,0), 2 CTAs running
GPGPU-Sim uArch: core: 11, cta: 0 initialized @(9802,0)
GPGPU-Sim uArch: Shader 13 finished CTA #0 (9807,0), 2 CTAs running
GPGPU-Sim uArch: core: 13, cta: 0 initialized @(9808,0)
GPGPU-Sim uArch: Shader 0 finished CTA #0 (9826,0), 2 CTAs running
GPGPU-Sim uArch: core:  0, cta: 0 initialized @(9827,0)
GPGPU-Sim uArch: Shader 10 finished CTA #0 (9835,0), 2 CTAs running
GPGPU-Sim uArch: core: 10, cta: 0 initialized @(9836,0)
GPGPU-Sim uArch: cycles simulated: 10000  inst.: 1444920 (ipc=144.5) sim_rate=80273 (inst/sec) elapsed = 0:0:00:18 / Tue Mar 22 12:46:31 2016
GPGPU-Sim PTX: 1600000 instructions simulated : ctaid=(208,0,0) tid=(385,0,0)
GPGPU-Sim uArch: Shader 3 finished CTA #1 (10386,0), 2 CTAs running
GPGPU-Sim uArch: core:  3, cta: 1 initialized @(10387,0)
GPGPU-Sim uArch: Shader 6 finished CTA #1 (10399,0), 2 CTAs running
GPGPU-Sim uArch: core:  6, cta: 1 initialized @(10400,0)
GPGPU-Sim uArch: Shader 9 finished CTA #1 (10402,0), 2 CTAs running
GPGPU-Sim uArch: core:  9, cta: 1 initialized @(10403,0)
GPGPU-Sim uArch: Shader 4 finished CTA #1 (10403,0), 2 CTAs running
GPGPU-Sim uArch: core:  4, cta: 1 initialized @(10404,0)
GPGPU-Sim uArch: Shader 5 finished CTA #1 (10408,0), 2 CTAs running
GPGPU-Sim uArch: core:  5, cta: 1 initialized @(10409,0)
GPGPU-Sim uArch: Shader 8 finished CTA #1 (10425,0), 2 CTAs running
GPGPU-Sim uArch: core:  8, cta: 1 initialized @(10426,0)
GPGPU-Sim uArch: Shader 1 finished CTA #2 (10427,0), 2 CTAs running
GPGPU-Sim uArch: core:  1, cta: 2 initialized @(10428,0)
GPGPU-Sim uArch: Shader 7 finished CTA #1 (10448,0), 2 CTAs running
GPGPU-Sim uArch: core:  7, cta: 1 initialized @(10449,0)
GPGPU-Sim uArch: Shader 2 finished CTA #1 (10449,0), 2 CTAs running
GPGPU-Sim uArch: core:  2, cta: 1 initialized @(10450,0)
GPGPU-Sim uArch: Shader 12 finished CTA #1 (10451,0), 2 CTAs running
GPGPU-Sim uArch: core: 12, cta: 1 initialized @(10452,0)
GPGPU-Sim uArch: Shader 14 finished CTA #1 (10469,0), 2 CTAs running
GPGPU-Sim uArch: core: 14, cta: 1 initialized @(10470,0)
GPGPU-Sim uArch: Shader 11 finished CTA #1 (10474,0), 2 CTAs running
GPGPU-Sim uArch: core: 11, cta: 1 initialized @(10475,0)
GPGPU-Sim uArch: Shader 13 finished CTA #1 (10480,0), 2 CTAs running
GPGPU-Sim uArch: core: 13, cta: 1 initialized @(10481,0)
GPGPU-Sim uArch: Shader 0 finished CTA #1 (10499,0), 2 CTAs running
GPGPU-Sim uArch: core:  0, cta: 1 initialized @(10500,0)
GPGPU-Sim uArch: Shader 10 finished CTA #1 (10508,0), 2 CTAs running
GPGPU-Sim uArch: core: 10, cta: 1 initialized @(10509,0)
GPGPU-Sim PTX: 1700000 instructions simulated : ctaid=(221,0,0) tid=(129,0,0)
GPGPU-Sim uArch: Shader 3 finished CTA #2 (11055,0), 2 CTAs running
GPGPU-Sim uArch: core:  3, cta: 2 initialized @(11056,0)
GPGPU-Sim uArch: Shader 6 finished CTA #2 (11068,0), 2 CTAs running
GPGPU-Sim uArch: core:  6, cta: 2 initialized @(11069,0)
GPGPU-Sim uArch: Shader 9 finished CTA #2 (11071,0), 2 CTAs running
GPGPU-Sim uArch: core:  9, cta: 2 initialized @(11072,0)
GPGPU-Sim uArch: Shader 4 finished CTA #2 (11076,0), 2 CTAs running
GPGPU-Sim uArch: core:  4, cta: 2 initialized @(11077,0)
GPGPU-Sim uArch: Shader 5 finished CTA #2 (11080,0), 2 CTAs running
GPGPU-Sim uArch: core:  5, cta: 2 initialized @(11081,0)
GPGPU-Sim uArch: Shader 8 finished CTA #2 (11094,0), 2 CTAs running
GPGPU-Sim uArch: core:  8, cta: 2 initialized @(11095,0)
GPGPU-Sim uArch: Shader 1 finished CTA #1 (11096,0), 2 CTAs running
GPGPU-Sim uArch: core:  1, cta: 1 initialized @(11097,0)
GPGPU-Sim uArch: Shader 2 finished CTA #2 (11118,0), 2 CTAs running
GPGPU-Sim uArch: core:  2, cta: 2 initialized @(11119,0)
GPGPU-Sim uArch: Shader 7 finished CTA #2 (11121,0), 2 CTAs running
GPGPU-Sim uArch: core:  7, cta: 2 initialized @(11122,0)
GPGPU-Sim uArch: Shader 12 finished CTA #2 (11124,0), 2 CTAs running
GPGPU-Sim uArch: core: 12, cta: 2 initialized @(11125,0)
GPGPU-Sim uArch: Shader 14 finished CTA #2 (11143,0), 2 CTAs running
GPGPU-Sim uArch: core: 14, cta: 2 initialized @(11144,0)
GPGPU-Sim uArch: Shader 11 finished CTA #2 (11149,0), 2 CTAs running
GPGPU-Sim uArch: core: 11, cta: 2 initialized @(11150,0)
GPGPU-Sim uArch: Shader 13 finished CTA #2 (11153,0), 2 CTAs running
GPGPU-Sim uArch: core: 13, cta: 2 initialized @(11154,0)
GPGPU-Sim uArch: Shader 0 finished CTA #2 (11174,0), 2 CTAs running
GPGPU-Sim uArch: core:  0, cta: 2 initialized @(11175,0)
GPGPU-Sim uArch: Shader 10 finished CTA #2 (11182,0), 2 CTAs running
GPGPU-Sim uArch: core: 10, cta: 2 initialized @(11183,0)
GPGPU-Sim PTX: 1800000 instructions simulated : ctaid=(230,0,0) tid=(129,0,0)
GPGPU-Sim uArch: cycles simulated: 11500  inst.: 1697720 (ipc=147.6) sim_rate=89353 (inst/sec) elapsed = 0:0:00:19 / Tue Mar 22 12:46:32 2016
GPGPU-Sim uArch: Shader 3 finished CTA #0 (11724,0), 2 CTAs running
GPGPU-Sim uArch: core:  3, cta: 0 initialized @(11725,0)
GPGPU-Sim uArch: Shader 6 finished CTA #0 (11736,0), 2 CTAs running
GPGPU-Sim uArch: core:  6, cta: 0 initialized @(11737,0)
GPGPU-Sim uArch: Shader 9 finished CTA #0 (11739,0), 2 CTAs running
GPGPU-Sim uArch: core:  9, cta: 0 initialized @(11740,0)
GPGPU-Sim uArch: Shader 4 finished CTA #0 (11752,0), 2 CTAs running
GPGPU-Sim uArch: core:  4, cta: 0 initialized @(11753,0)
GPGPU-Sim uArch: Shader 8 finished CTA #0 (11761,0), 2 CTAs running
GPGPU-Sim uArch: core:  8, cta: 0 initialized @(11762,0)
GPGPU-Sim uArch: Shader 5 finished CTA #0 (11762,0), 2 CTAs running
GPGPU-Sim uArch: core:  5, cta: 0 initialized @(11763,0)
GPGPU-Sim uArch: Shader 1 finished CTA #0 (11764,0), 2 CTAs running
GPGPU-Sim uArch: core:  1, cta: 0 initialized @(11765,0)
GPGPU-Sim uArch: Shader 2 finished CTA #0 (11786,0), 2 CTAs running
GPGPU-Sim uArch: core:  2, cta: 0 initialized @(11787,0)
GPGPU-Sim uArch: Shader 7 finished CTA #0 (11793,0), 2 CTAs running
GPGPU-Sim uArch: core:  7, cta: 0 initialized @(11794,0)
GPGPU-Sim uArch: Shader 12 finished CTA #0 (11796,0), 2 CTAs running
GPGPU-Sim uArch: core: 12, cta: 0 initialized @(11797,0)
GPGPU-Sim uArch: Shader 14 finished CTA #0 (11822,0), 2 CTAs running
GPGPU-Sim uArch: core: 14, cta: 0 initialized @(11823,0)
GPGPU-Sim uArch: Shader 11 finished CTA #0 (11823,0), 2 CTAs running
GPGPU-Sim uArch: core: 11, cta: 0 initialized @(11824,0)
GPGPU-Sim uArch: Shader 13 finished CTA #0 (11826,0), 2 CTAs running
GPGPU-Sim uArch: core: 13, cta: 0 initialized @(11827,0)
GPGPU-Sim uArch: Shader 0 finished CTA #0 (11848,0), 2 CTAs running
GPGPU-Sim uArch: core:  0, cta: 0 initialized @(11849,0)
GPGPU-Sim uArch: Shader 10 finished CTA #0 (11853,0), 2 CTAs running
GPGPU-Sim uArch: core: 10, cta: 0 initialized @(11854,0)
GPGPU-Sim PTX: 1900000 instructions simulated : ctaid=(249,0,0) tid=(257,0,0)
GPGPU-Sim uArch: Shader 3 finished CTA #1 (12393,0), 2 CTAs running
GPGPU-Sim uArch: core:  3, cta: 1 initialized @(12394,0)
GPGPU-Sim uArch: Shader 6 finished CTA #1 (12405,0), 2 CTAs running
GPGPU-Sim uArch: core:  6, cta: 1 initialized @(12406,0)
GPGPU-Sim uArch: Shader 9 finished CTA #1 (12408,0), 2 CTAs running
GPGPU-Sim uArch: core:  9, cta: 1 initialized @(12409,0)
GPGPU-Sim uArch: Shader 4 finished CTA #1 (12425,0), 2 CTAs running
GPGPU-Sim uArch: core:  4, cta: 1 initialized @(12426,0)
GPGPU-Sim uArch: Shader 8 finished CTA #1 (12430,0), 2 CTAs running
GPGPU-Sim uArch: core:  8, cta: 1 initialized @(12431,0)
GPGPU-Sim uArch: Shader 1 finished CTA #2 (12433,0), 2 CTAs running
GPGPU-Sim uArch: core:  1, cta: 2 initialized @(12434,0)
GPGPU-Sim uArch: Shader 5 finished CTA #1 (12435,0), 2 CTAs running
GPGPU-Sim uArch: core:  5, cta: 1 initialized @(12436,0)
GPGPU-Sim uArch: Shader 2 finished CTA #1 (12455,0), 2 CTAs running
GPGPU-Sim uArch: core:  2, cta: 1 initialized @(12456,0)
GPGPU-Sim uArch: Shader 7 finished CTA #1 (12464,0), 2 CTAs running
GPGPU-Sim uArch: core:  7, cta: 1 initialized @(12465,0)
GPGPU-Sim uArch: Shader 12 finished CTA #1 (12468,0), 2 CTAs running
GPGPU-Sim uArch: core: 12, cta: 1 initialized @(12469,0)
GPGPU-Sim uArch: Shader 14 finished CTA #1 (12492,0), 2 CTAs running
GPGPU-Sim uArch: core: 14, cta: 1 initialized @(12493,0)
GPGPU-Sim uArch: Shader 11 finished CTA #1 (12496,0), 2 CTAs running
GPGPU-Sim uArch: core: 11, cta: 1 initialized @(12497,0)
GPGPU-Sim uArch: Shader 13 finished CTA #1 (12499,0), 2 CTAs running
GPGPU-Sim uArch: core: 13, cta: 1 initialized @(12500,0)
GPGPU-Sim uArch: Shader 0 finished CTA #1 (12518,0), 2 CTAs running
GPGPU-Sim uArch: core:  0, cta: 1 initialized @(12519,0)
GPGPU-Sim PTX: 2000000 instructions simulated : ctaid=(269,0,0) tid=(129,0,0)
GPGPU-Sim uArch: Shader 10 finished CTA #1 (12528,0), 2 CTAs running
GPGPU-Sim uArch: core: 10, cta: 1 initialized @(12529,0)
GPGPU-Sim uArch: cycles simulated: 13000  inst.: 1928856 (ipc=148.4) sim_rate=96442 (inst/sec) elapsed = 0:0:00:20 / Tue Mar 22 12:46:33 2016
GPGPU-Sim uArch: Shader 3 finished CTA #2 (13061,0), 2 CTAs running
GPGPU-Sim uArch: core:  3, cta: 2 initialized @(13062,0)
GPGPU-Sim uArch: Shader 6 finished CTA #2 (13074,0), 2 CTAs running
GPGPU-Sim uArch: core:  6, cta: 2 initialized @(13075,0)
GPGPU-Sim uArch: Shader 9 finished CTA #2 (13077,0), 2 CTAs running
GPGPU-Sim uArch: core:  9, cta: 2 initialized @(13078,0)
GPGPU-Sim uArch: Shader 4 finished CTA #2 (13098,0), 2 CTAs running
GPGPU-Sim uArch: core:  4, cta: 2 initialized @(13099,0)
GPGPU-Sim uArch: Shader 8 finished CTA #2 (13099,0), 2 CTAs running
GPGPU-Sim uArch: core:  8, cta: 2 initialized @(13100,0)
GPGPU-Sim uArch: Shader 1 finished CTA #1 (13103,0), 2 CTAs running
GPGPU-Sim uArch: core:  1, cta: 1 initialized @(13104,0)
GPGPU-Sim uArch: Shader 5 finished CTA #2 (13116,0), 2 CTAs running
GPGPU-Sim uArch: core:  5, cta: 2 initialized @(13117,0)
GPGPU-Sim uArch: Shader 2 finished CTA #2 (13124,0), 2 CTAs running
GPGPU-Sim uArch: core:  2, cta: 2 initialized @(13125,0)
GPGPU-Sim PTX: 2100000 instructions simulated : ctaid=(278,0,0) tid=(225,0,0)
GPGPU-Sim uArch: Shader 7 finished CTA #2 (13136,0), 2 CTAs running
GPGPU-Sim uArch: core:  7, cta: 2 initialized @(13137,0)
GPGPU-Sim uArch: Shader 12 finished CTA #2 (13139,0), 2 CTAs running
GPGPU-Sim uArch: core: 12, cta: 2 initialized @(13140,0)
GPGPU-Sim uArch: Shader 14 finished CTA #2 (13165,0), 2 CTAs running
GPGPU-Sim uArch: core: 14, cta: 2 initialized @(13166,0)
GPGPU-Sim uArch: Shader 11 finished CTA #2 (13168,0), 2 CTAs running
GPGPU-Sim uArch: core: 11, cta: 2 initialized @(13169,0)
GPGPU-Sim uArch: Shader 13 finished CTA #2 (13171,0), 2 CTAs running
GPGPU-Sim uArch: core: 13, cta: 2 initialized @(13172,0)
GPGPU-Sim uArch: Shader 0 finished CTA #2 (13186,0), 2 CTAs running
GPGPU-Sim uArch: core:  0, cta: 2 initialized @(13187,0)
GPGPU-Sim uArch: Shader 10 finished CTA #2 (13201,0), 2 CTAs running
GPGPU-Sim uArch: core: 10, cta: 2 initialized @(13202,0)
GPGPU-Sim uArch: Shader 3 finished CTA #0 (13730,0), 2 CTAs running
GPGPU-Sim uArch: core:  3, cta: 0 initialized @(13731,0)
GPGPU-Sim uArch: Shader 6 finished CTA #0 (13743,0), 2 CTAs running
GPGPU-Sim uArch: core:  6, cta: 0 initialized @(13744,0)
GPGPU-Sim uArch: Shader 9 finished CTA #0 (13746,0), 2 CTAs running
GPGPU-Sim uArch: core:  9, cta: 0 initialized @(13747,0)
GPGPU-Sim PTX: 2200000 instructions simulated : ctaid=(297,0,0) tid=(33,0,0)
GPGPU-Sim uArch: Shader 8 finished CTA #0 (13768,0), 2 CTAs running
GPGPU-Sim uArch: core:  8, cta: 0 initialized @(13769,0)
GPGPU-Sim uArch: Shader 1 finished CTA #0 (13773,0), 2 CTAs running
GPGPU-Sim uArch: core:  1, cta: 0 initialized @(13774,0)
GPGPU-Sim uArch: Shader 4 finished CTA #0 (13777,0), 2 CTAs running
GPGPU-Sim uArch: core:  4, cta: 0 initialized @(13778,0)
GPGPU-Sim uArch: Shader 5 finished CTA #0 (13789,0), 2 CTAs running
GPGPU-Sim uArch: core:  5, cta: 0 initialized @(13790,0)
GPGPU-Sim uArch: Shader 2 finished CTA #0 (13793,0), 2 CTAs running
GPGPU-Sim uArch: core:  2, cta: 0 initialized @(13794,0)
GPGPU-Sim uArch: Shader 7 finished CTA #0 (13808,0), 2 CTAs running
GPGPU-Sim uArch: core:  7, cta: 0 initialized @(13809,0)
GPGPU-Sim uArch: Shader 12 finished CTA #0 (13811,0), 2 CTAs running
GPGPU-Sim uArch: core: 12, cta: 0 initialized @(13812,0)
GPGPU-Sim uArch: Shader 14 finished CTA #0 (13833,0), 2 CTAs running
GPGPU-Sim uArch: core: 14, cta: 0 initialized @(13834,0)
GPGPU-Sim uArch: Shader 11 finished CTA #0 (13839,0), 2 CTAs running
GPGPU-Sim uArch: core: 11, cta: 0 initialized @(13840,0)
GPGPU-Sim uArch: Shader 13 finished CTA #0 (13843,0), 2 CTAs running
GPGPU-Sim uArch: core: 13, cta: 0 initialized @(13844,0)
GPGPU-Sim uArch: Shader 0 finished CTA #0 (13855,0), 2 CTAs running
GPGPU-Sim uArch: core:  0, cta: 0 initialized @(13856,0)
GPGPU-Sim uArch: Shader 10 finished CTA #0 (13874,0), 2 CTAs running
GPGPU-Sim uArch: core: 10, cta: 0 initialized @(13875,0)
GPGPU-Sim uArch: cycles simulated: 14000  inst.: 2090264 (ipc=149.3) sim_rate=99536 (inst/sec) elapsed = 0:0:00:21 / Tue Mar 22 12:46:34 2016
GPGPU-Sim PTX: 2300000 instructions simulated : ctaid=(300,0,0) tid=(1,0,0)
GPGPU-Sim uArch: Shader 3 finished CTA #1 (14399,0), 2 CTAs running
GPGPU-Sim uArch: core:  3, cta: 1 initialized @(14400,0)
GPGPU-Sim uArch: Shader 6 finished CTA #1 (14411,0), 2 CTAs running
GPGPU-Sim uArch: core:  6, cta: 1 initialized @(14412,0)
GPGPU-Sim uArch: Shader 9 finished CTA #1 (14414,0), 2 CTAs running
GPGPU-Sim uArch: core:  9, cta: 1 initialized @(14415,0)
GPGPU-Sim uArch: Shader 8 finished CTA #1 (14436,0), 2 CTAs running
GPGPU-Sim uArch: core:  8, cta: 1 initialized @(14437,0)
GPGPU-Sim uArch: Shader 1 finished CTA #2 (14450,0), 2 CTAs running
GPGPU-Sim uArch: Shader 4 finished CTA #1 (14450,0), 2 CTAs running
GPGPU-Sim uArch: core:  1, cta: 2 initialized @(14451,0)
GPGPU-Sim uArch: core:  4, cta: 1 initialized @(14451,0)
GPGPU-Sim uArch: Shader 2 finished CTA #1 (14461,0), 2 CTAs running
GPGPU-Sim uArch: core:  2, cta: 1 initialized @(14462,0)
GPGPU-Sim uArch: Shader 5 finished CTA #1 (14464,0), 2 CTAs running
GPGPU-Sim uArch: core:  5, cta: 1 initialized @(14465,0)
GPGPU-Sim uArch: Shader 7 finished CTA #1 (14480,0), 2 CTAs running
GPGPU-Sim uArch: core:  7, cta: 1 initialized @(14481,0)
GPGPU-Sim uArch: Shader 12 finished CTA #1 (14483,0), 2 CTAs running
GPGPU-Sim uArch: core: 12, cta: 1 initialized @(14484,0)
GPGPU-Sim uArch: Shader 14 finished CTA #1 (14502,0), 2 CTAs running
GPGPU-Sim uArch: core: 14, cta: 1 initialized @(14503,0)
GPGPU-Sim uArch: Shader 11 finished CTA #1 (14511,0), 2 CTAs running
GPGPU-Sim uArch: core: 11, cta: 1 initialized @(14512,0)
GPGPU-Sim uArch: Shader 13 finished CTA #1 (14514,0), 2 CTAs running
GPGPU-Sim uArch: core: 13, cta: 1 initialized @(14515,0)
GPGPU-Sim uArch: Shader 0 finished CTA #1 (14524,0), 2 CTAs running
GPGPU-Sim uArch: core:  0, cta: 1 initialized @(14525,0)
GPGPU-Sim uArch: Shader 10 finished CTA #1 (14546,0), 2 CTAs running
GPGPU-Sim uArch: core: 10, cta: 1 initialized @(14547,0)
GPGPU-Sim PTX: 2400000 instructions simulated : ctaid=(309,0,0) tid=(449,0,0)
GPGPU-Sim uArch: Shader 3 finished CTA #2 (15068,0), 2 CTAs running
GPGPU-Sim uArch: core:  3, cta: 2 initialized @(15069,0)
GPGPU-Sim uArch: Shader 9 finished CTA #2 (15083,0), 2 CTAs running
GPGPU-Sim uArch: core:  9, cta: 2 initialized @(15084,0)
GPGPU-Sim uArch: Shader 6 finished CTA #2 (15086,0), 2 CTAs running
GPGPU-Sim uArch: core:  6, cta: 2 initialized @(15087,0)
GPGPU-Sim uArch: Shader 8 finished CTA #2 (15105,0), 2 CTAs running
GPGPU-Sim uArch: core:  8, cta: 2 initialized @(15106,0)
GPGPU-Sim uArch: Shader 1 finished CTA #1 (15118,0), 2 CTAs running
GPGPU-Sim uArch: core:  1, cta: 1 initialized @(15119,0)
GPGPU-Sim uArch: Shader 4 finished CTA #2 (15123,0), 2 CTAs running
GPGPU-Sim uArch: core:  4, cta: 2 initialized @(15124,0)
GPGPU-Sim uArch: Shader 2 finished CTA #2 (15130,0), 2 CTAs running
GPGPU-Sim uArch: core:  2, cta: 2 initialized @(15131,0)
GPGPU-Sim uArch: Shader 5 finished CTA #2 (15136,0), 2 CTAs running
GPGPU-Sim uArch: core:  5, cta: 2 initialized @(15137,0)
GPGPU-Sim uArch: Shader 7 finished CTA #2 (15153,0), 2 CTAs running
GPGPU-Sim uArch: core:  7, cta: 2 initialized @(15154,0)
GPGPU-Sim uArch: Shader 12 finished CTA #2 (15155,0), 2 CTAs running
GPGPU-Sim uArch: core: 12, cta: 2 initialized @(15156,0)
GPGPU-Sim uArch: Shader 14 finished CTA #2 (15171,0), 2 CTAs running
GPGPU-Sim uArch: core: 14, cta: 2 initialized @(15172,0)
GPGPU-Sim uArch: Shader 11 finished CTA #2 (15183,0), 2 CTAs running
GPGPU-Sim uArch: core: 11, cta: 2 initialized @(15184,0)
GPGPU-Sim uArch: Shader 13 finished CTA #2 (15186,0), 2 CTAs running
GPGPU-Sim uArch: core: 13, cta: 2 initialized @(15187,0)
GPGPU-Sim uArch: Shader 0 finished CTA #2 (15193,0), 2 CTAs running
GPGPU-Sim uArch: core:  0, cta: 2 initialized @(15194,0)
GPGPU-Sim uArch: Shader 10 finished CTA #2 (15218,0), 2 CTAs running
GPGPU-Sim uArch: core: 10, cta: 2 initialized @(15219,0)
GPGPU-Sim PTX: 2500000 instructions simulated : ctaid=(329,0,0) tid=(353,0,0)
GPGPU-Sim uArch: cycles simulated: 15500  inst.: 2337016 (ipc=150.8) sim_rate=106228 (inst/sec) elapsed = 0:0:00:22 / Tue Mar 22 12:46:35 2016
GPGPU-Sim uArch: Shader 3 finished CTA #0 (15736,0), 2 CTAs running
GPGPU-Sim uArch: core:  3, cta: 0 initialized @(15737,0)
GPGPU-Sim uArch: Shader 9 finished CTA #0 (15752,0), 2 CTAs running
GPGPU-Sim uArch: core:  9, cta: 0 initialized @(15753,0)
GPGPU-Sim uArch: Shader 6 finished CTA #0 (15755,0), 2 CTAs running
GPGPU-Sim uArch: core:  6, cta: 0 initialized @(15756,0)
GPGPU-Sim uArch: Shader 8 finished CTA #0 (15774,0), 2 CTAs running
GPGPU-Sim uArch: core:  8, cta: 0 initialized @(15775,0)
GPGPU-Sim uArch: Shader 1 finished CTA #0 (15786,0), 2 CTAs running
GPGPU-Sim uArch: core:  1, cta: 0 initialized @(15787,0)
GPGPU-Sim uArch: Shader 4 finished CTA #0 (15796,0), 2 CTAs running
GPGPU-Sim uArch: core:  4, cta: 0 initialized @(15797,0)
GPGPU-Sim uArch: Shader 2 finished CTA #0 (15799,0), 2 CTAs running
GPGPU-Sim uArch: core:  2, cta: 0 initialized @(15800,0)
GPGPU-Sim uArch: Shader 5 finished CTA #0 (15808,0), 2 CTAs running
GPGPU-Sim uArch: core:  5, cta: 0 initialized @(15809,0)
GPGPU-Sim uArch: Shader 7 finished CTA #0 (15826,0), 2 CTAs running
GPGPU-Sim uArch: core:  7, cta: 0 initialized @(15827,0)
GPGPU-Sim uArch: Shader 12 finished CTA #0 (15828,0), 2 CTAs running
GPGPU-Sim uArch: core: 12, cta: 0 initialized @(15829,0)
GPGPU-Sim uArch: Shader 14 finished CTA #0 (15839,0), 2 CTAs running
GPGPU-Sim uArch: core: 14, cta: 0 initialized @(15840,0)
GPGPU-Sim uArch: Shader 11 finished CTA #0 (15855,0), 2 CTAs running
GPGPU-Sim uArch: core: 11, cta: 0 initialized @(15856,0)
GPGPU-Sim uArch: Shader 13 finished CTA #0 (15858,0), 2 CTAs running
GPGPU-Sim uArch: core: 13, cta: 0 initialized @(15859,0)
GPGPU-Sim uArch: Shader 0 finished CTA #0 (15861,0), 2 CTAs running
GPGPU-Sim uArch: core:  0, cta: 0 initialized @(15862,0)
GPGPU-Sim uArch: Shader 10 finished CTA #0 (15889,0), 2 CTAs running
GPGPU-Sim uArch: core: 10, cta: 0 initialized @(15890,0)
GPGPU-Sim PTX: 2600000 instructions simulated : ctaid=(332,0,0) tid=(129,0,0)
GPGPU-Sim uArch: Shader 3 finished CTA #1 (16405,0), 2 CTAs running
GPGPU-Sim uArch: core:  3, cta: 1 initialized @(16406,0)
GPGPU-Sim uArch: Shader 9 finished CTA #1 (16421,0), 2 CTAs running
GPGPU-Sim uArch: core:  9, cta: 1 initialized @(16422,0)
GPGPU-Sim uArch: Shader 6 finished CTA #1 (16424,0), 2 CTAs running
GPGPU-Sim uArch: core:  6, cta: 1 initialized @(16425,0)
GPGPU-Sim uArch: Shader 8 finished CTA #1 (16443,0), 2 CTAs running
GPGPU-Sim uArch: core:  8, cta: 1 initialized @(16444,0)
GPGPU-Sim uArch: Shader 1 finished CTA #2 (16455,0), 2 CTAs running
GPGPU-Sim uArch: core:  1, cta: 2 initialized @(16456,0)
GPGPU-Sim uArch: Shader 2 finished CTA #1 (16468,0), 2 CTAs running
GPGPU-Sim uArch: Shader 4 finished CTA #1 (16468,0), 2 CTAs running
GPGPU-Sim uArch: core:  2, cta: 1 initialized @(16469,0)
GPGPU-Sim uArch: core:  4, cta: 1 initialized @(16469,0)
GPGPU-Sim uArch: Shader 5 finished CTA #1 (16480,0), 2 CTAs running
GPGPU-Sim uArch: core:  5, cta: 1 initialized @(16481,0)
GPGPU-Sim uArch: Shader 7 finished CTA #1 (16499,0), 2 CTAs running
GPGPU-Sim uArch: core:  7, cta: 1 initialized @(16500,0)
GPGPU-Sim uArch: Shader 12 finished CTA #1 (16504,0), 2 CTAs running
GPGPU-Sim uArch: core: 12, cta: 1 initialized @(16505,0)
GPGPU-Sim uArch: Shader 14 finished CTA #1 (16508,0), 2 CTAs running
GPGPU-Sim uArch: core: 14, cta: 1 initialized @(16509,0)
GPGPU-Sim uArch: Shader 11 finished CTA #1 (16528,0), 2 CTAs running
GPGPU-Sim uArch: core: 11, cta: 1 initialized @(16529,0)
GPGPU-Sim uArch: Shader 0 finished CTA #1 (16530,0), 2 CTAs running
GPGPU-Sim uArch: Shader 13 finished CTA #1 (16530,0), 2 CTAs running
GPGPU-Sim uArch: core: 13, cta: 1 initialized @(16531,0)
GPGPU-Sim uArch: core:  0, cta: 1 initialized @(16531,0)
GPGPU-Sim uArch: Shader 10 finished CTA #1 (16561,0), 2 CTAs running
GPGPU-Sim uArch: core: 10, cta: 1 initialized @(16562,0)
GPGPU-Sim PTX: 2700000 instructions simulated : ctaid=(347,0,0) tid=(321,0,0)
GPGPU-Sim uArch: cycles simulated: 17000  inst.: 2572952 (ipc=151.4) sim_rate=111867 (inst/sec) elapsed = 0:0:00:23 / Tue Mar 22 12:46:36 2016
GPGPU-Sim uArch: Shader 3 finished CTA #2 (17074,0), 2 CTAs running
GPGPU-Sim uArch: core:  3, cta: 2 initialized @(17075,0)
GPGPU-Sim uArch: Shader 9 finished CTA #2 (17089,0), 2 CTAs running
GPGPU-Sim uArch: core:  9, cta: 2 initialized @(17090,0)
GPGPU-Sim uArch: Shader 6 finished CTA #2 (17095,0), 2 CTAs running
GPGPU-Sim uArch: core:  6, cta: 2 initialized @(17096,0)
GPGPU-Sim uArch: Shader 8 finished CTA #2 (17111,0), 2 CTAs running
GPGPU-Sim uArch: core:  8, cta: 2 initialized @(17112,0)
GPGPU-Sim uArch: Shader 1 finished CTA #1 (17124,0), 2 CTAs running
GPGPU-Sim uArch: core:  1, cta: 1 initialized @(17125,0)
GPGPU-Sim uArch: Shader 2 finished CTA #2 (17136,0), 2 CTAs running
GPGPU-Sim uArch: core:  2, cta: 2 initialized @(17137,0)
GPGPU-Sim uArch: Shader 4 finished CTA #2 (17139,0), 2 CTAs running
GPGPU-Sim uArch: core:  4, cta: 2 initialized @(17140,0)
GPGPU-Sim uArch: Shader 5 finished CTA #2 (17153,0), 2 CTAs running
GPGPU-Sim uArch: core:  5, cta: 2 initialized @(17154,0)
GPGPU-Sim uArch: Shader 7 finished CTA #2 (17171,0), 2 CTAs running
GPGPU-Sim uArch: core:  7, cta: 2 initialized @(17172,0)
GPGPU-Sim uArch: Shader 12 finished CTA #2 (17177,0), 2 CTAs running
GPGPU-Sim uArch: Shader 14 finished CTA #2 (17177,0), 2 CTAs running
GPGPU-Sim uArch: core: 12, cta: 2 initialized @(17178,0)
GPGPU-Sim uArch: core: 14, cta: 2 initialized @(17178,0)
GPGPU-Sim PTX: 2800000 instructions simulated : ctaid=(367,0,0) tid=(225,0,0)
GPGPU-Sim uArch: Shader 0 finished CTA #2 (17199,0), 2 CTAs running
GPGPU-Sim uArch: core:  0, cta: 2 initialized @(17200,0)
GPGPU-Sim uArch: Shader 11 finished CTA #2 (17201,0), 2 CTAs running
GPGPU-Sim uArch: core: 11, cta: 2 initialized @(17202,0)
GPGPU-Sim uArch: Shader 13 finished CTA #2 (17203,0), 2 CTAs running
GPGPU-Sim uArch: core: 13, cta: 2 initialized @(17204,0)
GPGPU-Sim uArch: Shader 10 finished CTA #2 (17233,0), 2 CTAs running
GPGPU-Sim uArch: core: 10, cta: 2 initialized @(17234,0)
GPGPU-Sim uArch: Shader 3 finished CTA #0 (17743,0), 2 CTAs running
GPGPU-Sim uArch: core:  3, cta: 0 initialized @(17744,0)
GPGPU-Sim uArch: Shader 9 finished CTA #0 (17758,0), 2 CTAs running
GPGPU-Sim uArch: core:  9, cta: 0 initialized @(17759,0)
GPGPU-Sim uArch: Shader 6 finished CTA #0 (17772,0), 2 CTAs running
GPGPU-Sim uArch: core:  6, cta: 0 initialized @(17773,0)
GPGPU-Sim uArch: Shader 8 finished CTA #0 (17780,0), 2 CTAs running
GPGPU-Sim uArch: core:  8, cta: 0 initialized @(17781,0)
GPGPU-Sim uArch: Shader 1 finished CTA #0 (17793,0), 2 CTAs running
GPGPU-Sim uArch: core:  1, cta: 0 initialized @(17794,0)
GPGPU-Sim PTX: 2900000 instructions simulated : ctaid=(375,0,0) tid=(225,0,0)
GPGPU-Sim uArch: Shader 2 finished CTA #0 (17805,0), 2 CTAs running
GPGPU-Sim uArch: core:  2, cta: 0 initialized @(17806,0)
GPGPU-Sim uArch: Shader 4 finished CTA #0 (17811,0), 2 CTAs running
GPGPU-Sim uArch: core:  4, cta: 0 initialized @(17812,0)
GPGPU-Sim uArch: Shader 5 finished CTA #0 (17826,0), 2 CTAs running
GPGPU-Sim uArch: core:  5, cta: 0 initialized @(17827,0)
GPGPU-Sim uArch: Shader 7 finished CTA #0 (17843,0), 2 CTAs running
GPGPU-Sim uArch: core:  7, cta: 0 initialized @(17844,0)
GPGPU-Sim uArch: Shader 14 finished CTA #0 (17846,0), 2 CTAs running
GPGPU-Sim uArch: core: 14, cta: 0 initialized @(17847,0)
GPGPU-Sim uArch: Shader 12 finished CTA #0 (17850,0), 2 CTAs running
GPGPU-Sim uArch: core: 12, cta: 0 initialized @(17851,0)
GPGPU-Sim uArch: Shader 0 finished CTA #0 (17868,0), 2 CTAs running
GPGPU-Sim uArch: core:  0, cta: 0 initialized @(17869,0)
GPGPU-Sim uArch: Shader 11 finished CTA #0 (17874,0), 2 CTAs running
GPGPU-Sim uArch: core: 11, cta: 0 initialized @(17875,0)
GPGPU-Sim uArch: Shader 13 finished CTA #0 (17876,0), 2 CTAs running
GPGPU-Sim uArch: core: 13, cta: 0 initialized @(17877,0)
GPGPU-Sim uArch: Shader 10 finished CTA #0 (17905,0), 2 CTAs running
GPGPU-Sim uArch: core: 10, cta: 0 initialized @(17906,0)
GPGPU-Sim PTX: 3000000 instructions simulated : ctaid=(385,0,0) tid=(289,0,0)
GPGPU-Sim uArch: Shader 3 finished CTA #1 (18411,0), 2 CTAs running
GPGPU-Sim uArch: core:  3, cta: 1 initialized @(18412,0)
GPGPU-Sim uArch: Shader 9 finished CTA #1 (18427,0), 2 CTAs running
GPGPU-Sim uArch: core:  9, cta: 1 initialized @(18428,0)
GPGPU-Sim uArch: Shader 6 finished CTA #1 (18440,0), 2 CTAs running
GPGPU-Sim uArch: core:  6, cta: 1 initialized @(18441,0)
GPGPU-Sim uArch: Shader 8 finished CTA #1 (18449,0), 2 CTAs running
GPGPU-Sim uArch: core:  8, cta: 1 initialized @(18450,0)
GPGPU-Sim uArch: Shader 1 finished CTA #2 (18461,0), 2 CTAs running
GPGPU-Sim uArch: core:  1, cta: 2 initialized @(18462,0)
GPGPU-Sim uArch: Shader 2 finished CTA #1 (18474,0), 2 CTAs running
GPGPU-Sim uArch: core:  2, cta: 1 initialized @(18475,0)
GPGPU-Sim uArch: Shader 4 finished CTA #1 (18483,0), 2 CTAs running
GPGPU-Sim uArch: core:  4, cta: 1 initialized @(18484,0)
GPGPU-Sim uArch: Shader 5 finished CTA #1 (18499,0), 2 CTAs running
GPGPU-Sim uArch: core:  5, cta: 1 initialized @(18500,0)
GPGPU-Sim uArch: cycles simulated: 18500  inst.: 2817400 (ipc=152.3) sim_rate=117391 (inst/sec) elapsed = 0:0:00:24 / Tue Mar 22 12:46:37 2016
GPGPU-Sim uArch: Shader 7 finished CTA #1 (18514,0), 2 CTAs running
GPGPU-Sim uArch: Shader 14 finished CTA #1 (18514,0), 2 CTAs running
GPGPU-Sim uArch: core:  7, cta: 1 initialized @(18515,0)
GPGPU-Sim uArch: core: 14, cta: 1 initialized @(18515,0)
GPGPU-Sim uArch: Shader 12 finished CTA #1 (18523,0), 2 CTAs running
GPGPU-Sim uArch: core: 12, cta: 1 initialized @(18524,0)
GPGPU-Sim uArch: Shader 0 finished CTA #1 (18536,0), 2 CTAs running
GPGPU-Sim uArch: core:  0, cta: 1 initialized @(18537,0)
GPGPU-Sim uArch: Shader 11 finished CTA #1 (18546,0), 2 CTAs running
GPGPU-Sim uArch: core: 11, cta: 1 initialized @(18547,0)
GPGPU-Sim uArch: Shader 13 finished CTA #1 (18552,0), 2 CTAs running
GPGPU-Sim uArch: core: 13, cta: 1 initialized @(18553,0)
GPGPU-Sim uArch: Shader 10 finished CTA #1 (18578,0), 2 CTAs running
GPGPU-Sim uArch: core: 10, cta: 1 initialized @(18579,0)
GPGPU-Sim PTX: 3100000 instructions simulated : ctaid=(407,0,0) tid=(65,0,0)
GPGPU-Sim uArch: Shader 3 finished CTA #2 (19080,0), 2 CTAs running
GPGPU-Sim uArch: core:  3, cta: 2 initialized @(19081,0)
GPGPU-Sim uArch: Shader 9 finished CTA #2 (19096,0), 2 CTAs running
GPGPU-Sim uArch: core:  9, cta: 2 initialized @(19097,0)
GPGPU-Sim uArch: Shader 6 finished CTA #2 (19108,0), 2 CTAs running
GPGPU-Sim uArch: core:  6, cta: 2 initialized @(19109,0)
GPGPU-Sim uArch: Shader 8 finished CTA #2 (19118,0), 2 CTAs running
GPGPU-Sim uArch: core:  8, cta: 2 initialized @(19119,0)
GPGPU-Sim uArch: Shader 1 finished CTA #1 (19130,0), 2 CTAs running
GPGPU-Sim uArch: core:  1, cta: 1 initialized @(19131,0)
GPGPU-Sim uArch: Shader 2 finished CTA #2 (19143,0), 2 CTAs running
GPGPU-Sim uArch: core:  2, cta: 2 initialized @(19144,0)
GPGPU-Sim uArch: Shader 4 finished CTA #2 (19160,0), 2 CTAs running
GPGPU-Sim uArch: core:  4, cta: 2 initialized @(19161,0)
GPGPU-Sim uArch: Shader 5 finished CTA #2 (19171,0), 2 CTAs running
GPGPU-Sim uArch: core:  5, cta: 2 initialized @(19172,0)
GPGPU-Sim uArch: Shader 14 finished CTA #2 (19183,0), 2 CTAs running
GPGPU-Sim uArch: core: 14, cta: 2 initialized @(19184,0)
GPGPU-Sim uArch: Shader 7 finished CTA #2 (19186,0), 2 CTAs running
GPGPU-Sim uArch: core:  7, cta: 2 initialized @(19187,0)
GPGPU-Sim uArch: Shader 12 finished CTA #2 (19196,0), 2 CTAs running
GPGPU-Sim uArch: core: 12, cta: 2 initialized @(19197,0)
GPGPU-Sim uArch: Shader 0 finished CTA #2 (19205,0), 2 CTAs running
GPGPU-Sim uArch: core:  0, cta: 2 initialized @(19206,0)
GPGPU-Sim uArch: Shader 11 finished CTA #2 (19218,0), 2 CTAs running
GPGPU-Sim uArch: core: 11, cta: 2 initialized @(19219,0)
GPGPU-Sim uArch: Shader 13 finished CTA #2 (19225,0), 2 CTAs running
GPGPU-Sim uArch: core: 13, cta: 2 initialized @(19226,0)
GPGPU-Sim uArch: Shader 10 finished CTA #2 (19251,0), 2 CTAs running
GPGPU-Sim uArch: core: 10, cta: 2 initialized @(19252,0)
GPGPU-Sim uArch: cycles simulated: 19500  inst.: 2977400 (ipc=152.7) sim_rate=119096 (inst/sec) elapsed = 0:0:00:25 / Tue Mar 22 12:46:38 2016
GPGPU-Sim PTX: 3200000 instructions simulated : ctaid=(416,0,0) tid=(225,0,0)
GPGPU-Sim uArch: Shader 3 finished CTA #0 (19750,0), 2 CTAs running
GPGPU-Sim uArch: core:  3, cta: 0 initialized @(19751,0)
GPGPU-Sim uArch: Shader 9 finished CTA #0 (19764,0), 2 CTAs running
[...]
gpgpu_stall_shd_mem[g_mem_ld][wb_rsrv_fail] = 0
gpgpu_stall_shd_mem[g_mem_st][mshr_rc] = 0
gpgpu_stall_shd_mem[g_mem_st][icnt_rc] = 0
gpgpu_stall_shd_mem[g_mem_st][wb_icnt_rc] = 0
gpgpu_stall_shd_mem[g_mem_st][wb_rsrv_fail] = 0
gpgpu_stall_shd_mem[l_mem_ld][mshr_rc] = 0
gpgpu_stall_shd_mem[l_mem_ld][icnt_rc] = 0
gpgpu_stall_shd_mem[l_mem_ld][wb_icnt_rc] = 0
gpgpu_stall_shd_mem[l_mem_ld][wb_rsrv_fail] = 0
gpgpu_stall_shd_mem[l_mem_st][mshr_rc] = 0
gpgpu_stall_shd_mem[l_mem_st][icnt_rc] = 0
gpgpu_stall_shd_mem[l_mem_ld][wb_icnt_rc] = 0
gpgpu_stall_shd_mem[l_mem_ld][wb_rsrv_fail] = 0
gpu_reg_bank_conflict_stalls = 0
Warp Occupancy Distribution:
Stall:6050	W0_Idle:40043	W0_Scoreboard:4317534	W1:133	W2:0	W3:0	W4:0	W5:0	W6:0	W7:0	W8:0	W9:0	W10:0	W11:0	W12:0	W13:0	W14:0	W15:0	W16:0	W17:0	W18:0	W19:0	W20:0	W21:0	W22:0	W23:0	W24:0	W25:0	W26:0	W27:0	W28:0	W29:0	W30:0	W31:0	W32:937724
traffic_breakdown_coretomem[CONST_ACC_R] = 120 {8:15,}
traffic_breakdown_coretomem[GLOBAL_ACC_R] = 125064 {8:15633,}
traffic_breakdown_coretomem[GLOBAL_ACC_W] = 760 {40:19,}
traffic_breakdown_coretomem[INST_ACC_R] = 496 {8:62,}
traffic_breakdown_memtocore[CONST_ACC_R] = 1080 {72:15,}
traffic_breakdown_memtocore[GLOBAL_ACC_R] = 2126088 {136:15633,}
traffic_breakdown_memtocore[GLOBAL_ACC_W] = 152 {8:19,}
traffic_breakdown_memtocore[INST_ACC_R] = 8432 {136:62,}
maxmrqlatency = 34 
maxdqlatency = 0 
maxmflatency = 302 
averagemflatency = 259 
max_icnt2mem_latency = 36 
max_icnt2sh_latency = 166711 
mrq_lat_table:15505 	68 	38 	36 	18 	1 	0 	0 	0 	0 	0 	0 	0 	0 	0 	0 	0 	0 	0 	0 	0 	0 	0 	0 	0 	0 	0 	0 	0 	0 	0 	0 	
dq_lat_table:0 	0 	0 	0 	0 	0 	0 	0 	0 	0 	0 	0 	0 	0 	0 	0 	0 	0 	0 	0 	0 	0 	0 	0 	0 	0 	0 	0 	0 	0 	0 	0 	
mf_lat_table:0 	0 	0 	0 	0 	0 	0 	18 	15649 	0 	0 	0 	0 	0 	0 	0 	0 	0 	0 	0 	0 	0 	0 	0 	0 	0 	0 	0 	0 	0 	0 	0 	
icnt2mem_lat_table:0 	0 	0 	15707 	16 	6 	0 	0 	0 	0 	0 	0 	0 	0 	0 	0 	0 	0 	0 	0 	0 	0 	0 	0 	
icnt2sh_lat_table:0 	0 	0 	15630 	18 	0 	0 	0 	0 	0 	1 	6 	0 	0 	0 	0 	8 	4 	0 	0 	0 	0 	0 	0 	
mf_lat_pw_table:0 	0 	0 	0 	0 	0 	0 	3 	350 	0 	0 	0 	0 	0 	0 	0 	0 	0 	0 	0 	0 	0 	0 	0 	0 	0 	0 	0 	0 	0 	0 	0 	
maximum concurrent accesses to same row:
dram[0]:        32        32        32        32        32        32        32        32        32        32        32        32        32        32        32        32 
dram[1]:        32        32        32        32        32        32        32        32        32        32        32        32        32        32        32        32 
dram[2]:        32        32        32        32        32        32        32        32        32        32        32        32        32        32        32        32 
dram[3]:        32        32        32        32        32        32        32        32        32        32        32        32        32        32        32        32 
dram[4]:        32        32        32        32        32        32        32        32        32        32        32        32        32        32        32        32 
dram[5]:        32        32        32        32        32        32        32        32        32        32        32        32        32        32        32        32 
maximum service time to same row:
dram[0]:     34636     34532     34263     34347     34607     34622     34625     34262     34219     34625     34494     34586     34604     34269     34331     34528 
dram[1]:     34634     34532     34262     34347     34757     34622     34633     34242     34330     34728     34716     34585     34611     34375     34331     34734 
dram[2]:     34748     34535     34462     34331     34760     34695     34740     34243     34330     34728     34715     34622     34675     34375     34353     34735 
dram[3]:     34750     34544     34463     34336     34673     34698     34748     34236     34339     34664     34710     34622     34683     34332     34356     34741 
dram[4]:     34582     34313     34425     34328     34672     34550     34282     34235     34341     34665     34708     34312     34334     34337     34344     34740 
dram[5]:     34590     34316     34426     34524     34559     34558     34260     34240     34622     34460     34550     34255     34336     34681     34527     34580 
average row accesses per activate:
dram[0]: 20.375000 27.000000 32.000000 32.000000 32.000000 32.000000 32.000000 32.000000 32.000000 32.000000 28.000000 28.333334 29.000000 21.875000 32.000000 32.000000 
dram[1]: 27.000000 32.000000 32.000000 32.000000 23.142857 32.000000 32.000000 32.000000 23.285715 32.000000 28.000000 28.333334 29.000000 28.666666 32.000000 32.000000 
dram[2]: 27.000000 32.000000 32.000000 32.000000 32.000000 26.833334 32.000000 32.000000 27.000000 32.000000 28.000000 28.333334 29.000000 28.666666 32.000000 32.000000 
dram[3]: 32.000000 32.000000 32.000000 32.000000 32.000000 32.000000 32.000000 32.000000 32.000000 32.000000 28.000000 28.333334 29.000000 28.666666 27.000000 32.000000 
dram[4]: 32.000000 32.000000 32.000000 32.000000 32.000000 31.799999 32.000000 27.000000 32.000000 32.000000 19.222221 21.375000 29.000000 28.666666 32.000000 32.000000 
dram[5]: 23.285715 32.000000 32.000000 27.000000 32.000000 20.375000 32.000000 32.000000 27.000000 27.000000 28.333334 28.333334 28.833334 28.666666 32.000000 32.000000 
average row locality = 15666/533 = 29.392120
number of total memory accesses made:
dram[0]:         0         0         0         0         0         0         0         0         0         0         0         0         0         0         0         0 
dram[1]:         0         0         0         0         0         0         0         0         0         0         0         0         0         0         0         0 
dram[2]:         0         0         0         0         0         0         0         0         0         0         0         0         0         0         0         0 
dram[3]:         0         0         0         0         0         0         0         0         0         0         0         0         0         0         0         0 
dram[4]:         0         0         0         0         0         0         0         0         0         0         0         0         0         0         0         0 
dram[5]:         0         0         0         0         0         0         0         0         0         0         0         0         0         0         0         0 
total accesses: 0
min_bank_accesses = 0!
min_chip_accesses = 0!
number of total read accesses:
dram[0]:       163       161       160       160       160       160       160       160       160       160       168       170       174       174       160       160 
dram[1]:       162       160       160       160       161       160       160       160       162       160       168       170       174       172       160       160 
dram[2]:       162       160       160       160       160       161       160       160       161       160       168       170       174       172       160       160 
dram[3]:       160       160       160       160       160       160       160       160       160       160       168       170       174       172       161       160 
dram[4]:       160       160       160       160       160       159       160       161       160       160       171       171       174       172       160       160 
dram[5]:       162       160       160       161       160       161       160       160       161       161       170       170       173       172       160       160 
total reads: 15651
bank skew: 174/159 = 1.09
chip skew: 2611/2605 = 1.00
number of total write accesses:
dram[0]:         0         1         0         0         0         0         0         0         0         0         0         0         0         1         0         0 
dram[1]:         0         0         0         0         1         0         0         0         1         0         0         0         0         0         0         0 
dram[2]:         0         0         0         0         0         0         0         0         1         0         0         0         0         0         0         0 
dram[3]:         0         0         0         0         0         0         0         0         0         0         0         0         0         0         1         0 
dram[4]:         0         0         0         0         0         0         0         1         0         0         2         0         0         0         0         0 
dram[5]:         1         0         0         1         0         2         0         0         1         1         0         0         0         0         0         0 
total reads: 15
min_bank_accesses = 0!
chip skew: 6/1 = 6.00
average mf latency per bank:
dram[0]:        278       258       259       259       259       259       259       259       259       259       259       260       259       258       259       259
dram[1]:        256       259       259       259       259       259       259       259       258       259       259       259       259       259       259       259
dram[2]:        256       259       259       259       259       259       259       259       259       259       259       259       259       260       259       259
dram[3]:        259       259       259       259       259       259       259       259       259       259       259       259       259       259       257       259
dram[4]:        259       259       259       259       259       259       259       259       259       259       257       260       259       259       259       259
dram[5]:        257       259       259       257       259       257       259       259       257       257       259       259       259       259       259       259
maximum mf latency per bank:
dram[0]:        278       277       279       278       277       278       277       277       277       278       277       278       280       286       277       278
dram[1]:        278       279       281       277       281       278       281       278       277       277       282       277       277       277       277       279
dram[2]:        278       278       277       279       281       277       277       283       277       277       282       277       278       279       282       277
dram[3]:        277       277       277       281       277       278       277       281       277       278       277       278       279       277       277       277
dram[4]:        279       280       284       279       279       277       277       284       277       278       278       302       277       277       277       278
dram[5]:        278       277       277       279       278       285       277       277       277       278       278       277       279       277       277       285

Number of Memory Banks Accessed per Memory Operation per Warp (from 0):
0	0	0	0	0	0	0	0	0	0	0	0	0	0	0	0	0	0	0	0	0	0	0	0	0	0	0	0	0	0	0	0	0	0	0	0	0	0	0	0	0	0	0	0	0	0	0	0	0	0	0	0	0	0	0	0	0	0	0	0	0	0	0	0	0	0	0	0	0	0	0	0	0	0	0	0	0	0	0	0	0	0	0	0	0	0	0	0	0	0	0	0	0	0	0	0	
Average # of Memory Banks Accessed per Memory Operation per Warp=-nan

position of mrq chosen
0	0	0	0	0	0	0	0	0	0	0	0	0	0	0	0	

average position of mrq chosen = -nan
Memory Partition 0: 
Cache L2_bank_000:
MSHR contents

Cache L2_bank_001:
MSHR contents

In Dram Latency Queue (total = 0): 
DRAM[0]: 16 bks, busW=4 BL=8 CL=12, tRRD=2 tCCD=6, tRCD=12 tRAS=28 tRP=12 tRC=40
n_cmd=234438 n_nop=229052 n_act=90 n_pre=74 n_req=2612 n_rd=5220 n_write=2 bw_util=0.04455
n_activity=38868 dram_eff=0.2687
bk0: 326a 233594i bk1: 322a 233606i bk2: 320a 233676i bk3: 320a 233666i bk4: 320a 233660i bk5: 320a 233647i bk6: 320a 233684i bk7: 320a 233651i bk8: 320a 233674i bk9: 320a 233670i bk10: 336a 233612i bk11: 340a 233541i bk12: 348a 233579i bk13: 348a 233500i bk14: 320a 233663i bk15: 320a 233630i 
dram_util_bins: 0 0 0 0 0 0 0 0 0 0
dram_eff_bins: 0 0 0 0 0 0 0 0 0 0
mrqq: max=2 avg=0.00104505
Memory Partition 1: 
Cache L2_bank_002:
MSHR contents

Cache L2_bank_003:
MSHR contents

In Dram Latency Queue (total = 0): 
DRAM[1]: 16 bks, busW=4 BL=8 CL=12, tRRD=2 tCCD=6, tRCD=12 tRAS=28 tRP=12 tRC=40
n_cmd=234438 n_nop=229055 n_act=89 n_pre=73 n_req=2611 n_rd=5218 n_write=3 bw_util=0.04454
n_activity=38478 dram_eff=0.2714
bk0: 324a 233638i bk1: 320a 233638i bk2: 320a 233671i bk3: 320a 233679i bk4: 322a 233616i bk5: 320a 233644i bk6: 320a 233671i bk7: 320a 233642i bk8: 324a 233597i bk9: 320a 233659i bk10: 336a 233593i bk11: 340a 233591i bk12: 348a 233584i bk13: 344a 233549i bk14: 320a 233663i bk15: 320a 233641i 
dram_util_bins: 0 0 0 0 0 0 0 0 0 0
dram_eff_bins: 0 0 0 0 0 0 0 0 0 0
mrqq: max=1 avg=0.000627031
Memory Partition 2: 
Cache L2_bank_004:
MSHR contents

Cache L2_bank_005:
MSHR contents

In Dram Latency Queue (total = 0): 
DRAM[2]: 16 bks, busW=4 BL=8 CL=12, tRRD=2 tCCD=6, tRCD=12 tRAS=28 tRP=12 tRC=40
n_cmd=234438 n_nop=229063 n_act=87 n_pre=71 n_req=2609 n_rd=5216 n_write=1 bw_util=0.04451
n_activity=38216 dram_eff=0.273
bk0: 324a 233636i bk1: 320a 233651i bk2: 320a 233661i bk3: 320a 233630i bk4: 320a 233654i bk5: 322a 233590i bk6: 320a 233680i bk7: 320a 233667i bk8: 322a 233645i bk9: 320a 233671i bk10: 336a 233612i bk11: 340a 233557i bk12: 348a 233580i bk13: 344a 233494i bk14: 320a 233669i bk15: 320a 233665i 
dram_util_bins: 0 0 0 0 0 0 0 0 0 0
dram_eff_bins: 0 0 0 0 0 0 0 0 0 0
mrqq: max=3 avg=0.00127113
Memory Partition 3: 
Cache L2_bank_006:
MSHR contents

Cache L2_bank_007:
MSHR contents

In Dram Latency Queue (total = 0): 
DRAM[3]: 16 bks, busW=4 BL=8 CL=12, tRRD=2 tCCD=6, tRCD=12 tRAS=28 tRP=12 tRC=40
n_cmd=234438 n_nop=229073 n_act=85 n_pre=69 n_req=2606 n_rd=5210 n_write=1 bw_util=0.04446
n_activity=38552 dram_eff=0.2703
bk0: 320a 233667i bk1: 320a 233646i bk2: 320a 233675i bk3: 320a 233652i bk4: 320a 233661i bk5: 320a 233640i bk6: 320a 233680i bk7: 320a 233672i bk8: 320a 233681i bk9: 320a 233679i bk10: 336a 233615i bk11: 340a 233597i bk12: 348a 233546i bk13: 344a 233560i bk14: 322a 233638i bk15: 320a 233649i 
dram_util_bins: 0 0 0 0 0 0 0 0 0 0
dram_eff_bins: 0 0 0 0 0 0 0 0 0 0
mrqq: max=1 avg=0.000563049
Memory Partition 4: 
Cache L2_bank_008:
MSHR contents

Cache L2_bank_009:
MSHR contents

In Dram Latency Queue (total = 0): 
DRAM[4]: 16 bks, busW=4 BL=8 CL=12, tRRD=2 tCCD=6, tRCD=12 tRAS=28 tRP=12 tRC=40
n_cmd=234438 n_nop=229054 n_act=90 n_pre=74 n_req=2611 n_rd=5216 n_write=4 bw_util=0.04453
n_activity=39084 dram_eff=0.2671
bk0: 320a 233665i bk1: 320a 233640i bk2: 320a 233673i bk3: 320a 233677i bk4: 320a 233671i bk5: 318a 233650i bk6: 320a 233674i bk7: 322a 233579i bk8: 320a 233684i bk9: 320a 233686i bk10: 342a 233524i bk11: 342a 233511i bk12: 348a 233562i bk13: 344a 233545i bk14: 320a 233664i bk15: 320a 233633i 
dram_util_bins: 0 0 0 0 0 0 0 0 0 0
dram_eff_bins: 0 0 0 0 0 0 0 0 0 0
mrqq: max=2 avg=0.00144175
Memory Partition 5: 
Cache L2_bank_010:
MSHR contents

Cache L2_bank_011:
MSHR contents

In Dram Latency Queue (total = 0): 
DRAM[5]: 16 bks, busW=4 BL=8 CL=12, tRRD=2 tCCD=6, tRCD=12 tRAS=28 tRP=12 tRC=40
n_cmd=234438 n_nop=229041 n_act=92 n_pre=76 n_req=2617 n_rd=5222 n_write=7 bw_util=0.04461
n_activity=39204 dram_eff=0.2668
bk0: 324a 233607i bk1: 320a 233666i bk2: 320a 233684i bk3: 322a 233646i bk4: 320a 233666i bk5: 322a 233513i bk6: 320a 233667i bk7: 320a 233647i bk8: 322a 233645i bk9: 322a 233631i bk10: 340a 233614i bk11: 340a 233578i bk12: 346a 233588i bk13: 344a 233562i bk14: 320a 233673i bk15: 320a 233627i 
dram_util_bins: 0 0 0 0 0 0 0 0 0 0
dram_eff_bins: 0 0 0 0 0 0 0 0 0 0
mrqq: max=2 avg=0.000887228

========= L2 cache stats =========
L2_cache_bank[0]: Access = 1333, Miss = 1305, Miss_rate = 0.979, Pending_hits = 6, Reservation_fails = 225
L2_cache_bank[1]: Access = 1306, Miss = 1305, Miss_rate = 0.999, Pending_hits = 0, Reservation_fails = 0
L2_cache_bank[2]: Access = 1323, Miss = 1307, Miss_rate = 0.988, Pending_hits = 3, Reservation_fails = 108
L2_cache_bank[3]: Access = 1302, Miss = 1302, Miss_rate = 1.000, Pending_hits = 0, Reservation_fails = 0
L2_cache_bank[4]: Access = 1335, Miss = 1305, Miss_rate = 0.978, Pending_hits = 6, Reservation_fails = 209
L2_cache_bank[5]: Access = 1303, Miss = 1303, Miss_rate = 1.000, Pending_hits = 0, Reservation_fails = 0
L2_cache_bank[6]: Access = 1303, Miss = 1303, Miss_rate = 1.000, Pending_hits = 0, Reservation_fails = 0
L2_cache_bank[7]: Access = 1302, Miss = 1302, Miss_rate = 1.000, Pending_hits = 0, Reservation_fails = 0
L2_cache_bank[8]: Access = 1306, Miss = 1305, Miss_rate = 0.999, Pending_hits = 0, Reservation_fails = 0
L2_cache_bank[9]: Access = 1304, Miss = 1303, Miss_rate = 0.999, Pending_hits = 0, Reservation_fails = 0
L2_cache_bank[10]: Access = 1306, Miss = 1306, Miss_rate = 1.000, Pending_hits = 0, Reservation_fails = 0
L2_cache_bank[11]: Access = 1306, Miss = 1305, Miss_rate = 0.999, Pending_hits = 0, Reservation_fails = 0
L2_total_cache_accesses = 15729
L2_total_cache_misses = 15651
L2_total_cache_miss_rate = 0.9950
L2_total_cache_pending_hits = 15
L2_total_cache_reservation_fails = 542
L2_total_cache_breakdown:
	L2_cache_stats_breakdown[GLOBAL_ACC_R][HIT] = 1
	L2_cache_stats_breakdown[GLOBAL_ACC_R][MISS] = 15632
	L2_cache_stats_breakdown[CONST_ACC_R][HIT] = 11
	L2_cache_stats_breakdown[CONST_ACC_R][HIT_RESERVED] = 3
	L2_cache_stats_breakdown[CONST_ACC_R][MISS] = 1
	L2_cache_stats_breakdown[CONST_ACC_R][RESERVATION_FAIL] = 109
	L2_cache_stats_breakdown[GLOBAL_ACC_W][HIT] = 7
	L2_cache_stats_breakdown[GLOBAL_ACC_W][MISS] = 12
	L2_cache_stats_breakdown[INST_ACC_R][HIT] = 44
	L2_cache_stats_breakdown[INST_ACC_R][HIT_RESERVED] = 12
	L2_cache_stats_breakdown[INST_ACC_R][MISS] = 6
	L2_cache_stats_breakdown[INST_ACC_R][RESERVATION_FAIL] = 433
L2_cache_data_port_util = 0.000
L2_cache_fill_port_util = 0.029

icnt_total_pkts_mem_to_simt=78539
icnt_total_pkts_simt_to_mem=15748
LD_mem_lat_dist  0 0 0 0 0 0 0 0 0 0 0 0 0 0 0 0 0 0 0 0 0 0 0 0 0 0 0
ST_mem_lat_dist  0 0 0 0 0 0 0 0 0 0 0 0 0 0 0 0 0 0 0 0 0 0 0 0 0 0 0
----------------------------Interconnect-DETAILS--------------------------------
Class 0:
Packet latency average = 8.05251
	minimum = 6
	maximum = 34
Network latency average = 8.03603
	minimum = 6
	maximum = 34
Slowest packet = 15758
Flit latency average = 6.04277
	minimum = 6
	maximum = 34
Slowest flit = 47203
Fragmentation average = 0
	minimum = 0
	maximum = 0
Injected packet rate average = 0.00655977
	minimum = 0.00588501 (at node 1)
	maximum = 0.00772266 (at node 19)
Accepted packet rate average = 0.00655977
	minimum = 0.00588501 (at node 1)
	maximum = 0.00772266 (at node 19)
Injected flit rate average = 0.0196643
	minimum = 0.00588501 (at node 1)
	maximum = 0.038478 (at node 19)
Accepted flit rate average= 0.0196643
	minimum = 0.00732807 (at node 18)
	maximum = 0.0296505 (at node 0)
Injected packet length average = 2.99771
Accepted packet length average = 2.99771
Total in-flight flits = 0 (0 measured)
====== Overall Traffic Statistics ======
====== Traffic class 0 ======
Packet latency average = 8.05496 (2 samples)
	minimum = 6 (2 samples)
	maximum = 34 (2 samples)
Network latency average = 8.03694 (2 samples)
	minimum = 6 (2 samples)
	maximum = 34 (2 samples)
Flit latency average = 6.0427 (2 samples)
	minimum = 6 (2 samples)
	maximum = 34 (2 samples)
Fragmentation average = 0 (2 samples)
	minimum = 0 (2 samples)
	maximum = 0 (2 samples)
Injected packet rate average = 0.00656009 (2 samples)
	minimum = 0.00588381 (2 samples)
	maximum = 0.00769122 (2 samples)
Accepted packet rate average = 0.00656009 (2 samples)
	minimum = 0.00588381 (2 samples)
	maximum = 0.00769122 (2 samples)
Injected flit rate average = 0.0196621 (2 samples)
	minimum = 0.00588381 (2 samples)
	maximum = 0.0382197 (2 samples)
Accepted flit rate average = 0.0196621 (2 samples)
	minimum = 0.00731958 (2 samples)
	maximum = 0.0298411 (2 samples)
Injected packet size average = 2.99723 (2 samples)
Accepted packet size average = 2.99723 (2 samples)
Hops average = 1 (2 samples)
