

        *** GPGPU-Sim Simulator Version 3.2.2  [build 0] ***


GPGPU-Sim PTX: simulation mode 0 (can change with PTX_SIM_MODE_FUNC environment variable:
               1=functional simulation only, 0=detailed performance simulator)
GPGPU-Sim: Configuration options:

-network_mode                           1 # Interconnection network mode
-inter_config_file   config_fermi_islip.icnt # Interconnection network config file
-gpgpu_ptx_use_cuobjdump                    1 # Use cuobjdump to extract ptx and sass from binaries
-gpgpu_experimental_lib_support                    0 # Try to extract code from cuda libraries [Broken because of unknown cudaGetExportTable]
-gpgpu_ptx_convert_to_ptxplus                    0 # Convert SASS (native ISA) to ptxplus and run ptxplus
-gpgpu_ptx_force_max_capability                   20 # Force maximum compute capability
-gpgpu_ptx_inst_debug_to_file                    0 # Dump executed instructions' debug information to file
-gpgpu_ptx_inst_debug_file       inst_debug.txt # Executed instructions' debug output file
-gpgpu_ptx_inst_debug_thread_uid                    1 # Thread UID for executed instructions' debug output
-gpgpu_simd_model                       1 # 1 = post-dominator
-gpgpu_shader_core_pipeline              1536:32 # shader core pipeline config, i.e., {<nthread>:<warpsize>}
-gpgpu_tex_cache:l1  4:128:24,L:R:m:N:L,F:128:4,128:2 # per-shader L1 texture cache  (READ-ONLY) config  {<nsets>:<bsize>:<assoc>,<rep>:<wr>:<alloc>:<wr_alloc>,<mshr>:<N>:<merge>,<mq>:<rf>}
-gpgpu_const_cache:l1 64:64:2,L:R:f:N:L,A:2:32,4 # per-shader L1 constant memory cache  (READ-ONLY) config  {<nsets>:<bsize>:<assoc>,<rep>:<wr>:<alloc>:<wr_alloc>,<mshr>:<N>:<merge>,<mq>} 
-gpgpu_cache:il1     4:128:4,L:R:f:N:L,A:2:32,4 # shader L1 instruction cache config  {<nsets>:<bsize>:<assoc>,<rep>:<wr>:<alloc>:<wr_alloc>,<mshr>:<N>:<merge>,<mq>} 
-gpgpu_cache:dl1     32:128:4,L:L:m:N:H,A:32:8,8:2,0,1:0:1:1:0:1,1:4:8:16:32:64,/sciclone/data10/hwang07/GPU_RESEARCH/swl/swl_outputs/RESULTS/swl1/ # per-shader L1 data cache config  {<nsets>:<bsize>:<assoc>,<rep>:<wr>:<alloc>:<wr_alloc>,<mshr>:<N>:<merge>,<mq> | none}
-gpgpu_cache:dl1PrefL1                 none # per-shader L1 data cache config  {<nsets>:<bsize>:<assoc>,<rep>:<wr>:<alloc>:<wr_alloc>,<mshr>:<N>:<merge>,<mq> | none}
-gpgpu_cache:dl1PreShared                 none # per-shader L1 data cache config  {<nsets>:<bsize>:<assoc>,<rep>:<wr>:<alloc>:<wr_alloc>,<mshr>:<N>:<merge>,<mq> | none}
-gmem_skip_L1D                          0 # global memory access skip L1D cache (implements -Xptxas -dlcm=cg, default=no skip)
-gpgpu_perfect_mem                      0 # enable perfect memory mode (no cache miss)
-n_regfile_gating_group                    4 # group of lanes that should be read/written together)
-gpgpu_clock_gated_reg_file                    0 # enable clock gated reg file for power calculations
-gpgpu_clock_gated_lanes                    0 # enable clock gated lanes for power calculations
-gpgpu_shader_registers                32768 # Number of registers per shader core. Limits number of concurrent CTAs. (default 8192)
-gpgpu_shader_cta                       8 # Maximum number of concurrent CTAs in shader (default 8)
-gpgpu_num_cta_barriers                   16 # Maximum number of named barriers per CTA (default 16)
-gpgpu_n_clusters                      15 # number of processing clusters
-gpgpu_n_cores_per_cluster                    1 # number of simd cores per cluster
-gpgpu_n_cluster_ejection_buffer_size                    8 # number of packets in ejection buffer
-gpgpu_n_ldst_response_buffer_size                    2 # number of response packets in ld/st unit ejection buffer
-gpgpu_shmem_size                   16384 # Size of shared memory per shader core (default 16kB)
-gpgpu_shmem_size                   49152 # Size of shared memory per shader core (default 16kB)
-gpgpu_shmem_size_PrefL1                16384 # Size of shared memory per shader core (default 16kB)
-gpgpu_shmem_size_PrefShared                16384 # Size of shared memory per shader core (default 16kB)
-gpgpu_shmem_num_banks                   32 # Number of banks in the shared memory in each shader core (default 16)
-gpgpu_shmem_limited_broadcast                    0 # Limit shared memory to do one broadcast per cycle (default on)
-gpgpu_shmem_warp_parts                    1 # Number of portions a warp is divided into for shared memory bank conflict check 
-gpgpu_warpdistro_shader                   -1 # Specify which shader core to collect the warp size distribution from
-gpgpu_warp_issue_shader                    0 # Specify which shader core to collect the warp issue distribution from
-gpgpu_local_mem_map                    1 # Mapping from local memory space address to simulated GPU physical address space (default = enabled)
-gpgpu_num_reg_banks                   16 # Number of register banks (default = 8)
-gpgpu_reg_bank_use_warp_id                    0 # Use warp ID in mapping registers to banks (default = off)
-gpgpu_operand_collector_num_units_sp                    6 # number of collector units (default = 4)
-gpgpu_operand_collector_num_units_sfu                    8 # number of collector units (default = 4)
-gpgpu_operand_collector_num_units_mem                    2 # number of collector units (default = 2)
-gpgpu_operand_collector_num_units_gen                    0 # number of collector units (default = 0)
-gpgpu_operand_collector_num_in_ports_sp                    2 # number of collector unit in ports (default = 1)
-gpgpu_operand_collector_num_in_ports_sfu                    1 # number of collector unit in ports (default = 1)
-gpgpu_operand_collector_num_in_ports_mem                    1 # number of collector unit in ports (default = 1)
-gpgpu_operand_collector_num_in_ports_gen                    0 # number of collector unit in ports (default = 0)
-gpgpu_operand_collector_num_out_ports_sp                    2 # number of collector unit in ports (default = 1)
-gpgpu_operand_collector_num_out_ports_sfu                    1 # number of collector unit in ports (default = 1)
-gpgpu_operand_collector_num_out_ports_mem                    1 # number of collector unit in ports (default = 1)
-gpgpu_operand_collector_num_out_ports_gen                    0 # number of collector unit in ports (default = 0)
-gpgpu_coalesce_arch                   13 # Coalescing arch (default = 13, anything else is off for now)
-gpgpu_num_sched_per_core                    2 # Number of warp schedulers per core
-gpgpu_max_insn_issue_per_warp                    1 # Max number of instructions that can be issued per warp in one cycle by scheduler
-gpgpu_simt_core_sim_order                    1 # Select the simulation order of cores in a cluster (0=Fix, 1=Round-Robin)
-gpgpu_pipeline_widths        2,1,1,2,1,1,2 # Pipeline widths ID_OC_SP,ID_OC_SFU,ID_OC_MEM,OC_EX_SP,OC_EX_SFU,OC_EX_MEM,EX_WB
-gpgpu_num_sp_units                     2 # Number of SP units (default=1)
-gpgpu_num_sfu_units                    1 # Number of SF units (default=1)
-gpgpu_num_mem_units                    1 # Number if ldst units (default=1) WARNING: not hooked up to anything
-gpgpu_scheduler        warp_limiting:2:1 # Scheduler configuration: < lrr | gto | two_level_active > If two_level_active:<num_active_warps>:<inner_prioritization>:<outer_prioritization>For complete list of prioritization values see shader.h enum scheduler_prioritization_typeDefault: gto
-gpgpu_dram_scheduler                    1 # 0 = fifo, 1 = FR-FCFS (defaul)
-gpgpu_dram_partition_queues              8:8:8:8 # i2$:$2d:d2$:$2i
-l2_ideal                               0 # Use a ideal L2 cache that always hit
-gpgpu_cache:dl2     64:128:8,L:B:m:W:L,A:32:4,4:0,32 # unified banked L2 data cache config  {<nsets>:<bsize>:<assoc>,<rep>:<wr>:<alloc>:<wr_alloc>,<mshr>:<N>:<merge>,<mq>}
-gpgpu_cache:dl2_texture_only                    0 # L2 cache used for texture only
-gpgpu_n_mem                            6 # number of memory modules (e.g. memory controllers) in gpu
-gpgpu_n_sub_partition_per_mchannel                    2 # number of memory subpartition in each memory module
-gpgpu_n_mem_per_ctrlr                    2 # number of memory chips per memory controller
-gpgpu_memlatency_stat                   14 # track and display latency statistics 0x2 enables MC, 0x4 enables queue logs
-gpgpu_frfcfs_dram_sched_queue_size                   16 # 0 = unlimited (default); # entries per chip
-gpgpu_dram_return_queue_size                  116 # 0 = unlimited (default); # entries per chip
-gpgpu_dram_buswidth                    4 # default = 4 bytes (8 bytes per cycle at DDR)
-gpgpu_dram_burst_length                    8 # Burst length of each DRAM request (default = 4 data bus cycle)
-dram_data_command_freq_ratio                    4 # Frequency ratio between DRAM data bus and command bus (default = 2 times, i.e. DDR)
-gpgpu_dram_timing_opt nbk=16:CCD=2:RRD=6:RCD=12:RAS=28:RP=12:RC=40: CL=12:WL=4:CDLR=5:WR=12:nbkgrp=4:CCDL=3:RTPL=2 # DRAM timing parameters = {nbk:tCCD:tRRD:tRCD:tRAS:tRP:tRC:CL:WL:tCDLR:tWR:nbkgrp:tCCDL:tRTPL}
-rop_latency                          120 # ROP queue latency (default 85)
-dram_latency                         100 # DRAM latency (default 30)
-gpgpu_mem_addr_mapping dramid@8;00000000.00000000.00000000.00000000.0000RRRR.RRRRRRRR.BBBCCCCB.CCSSSSSS # mapping memory address to dram model {dramid@<start bit>;<memory address map>}
-gpgpu_mem_addr_test                    0 # run sweep test to check address mapping for aliased address
-gpgpu_mem_address_mask                    1 # 0 = old addressing mask, 1 = new addressing mask, 2 = new add. mask + flipped bank sel and chip sel bits
-gpuwattch_xml_file  gpuwattch_gtx480.xml # GPUWattch XML file
-power_simulation_enabled                    0 # Turn on power simulator (1=On, 0=Off)
-power_per_cycle_dump                    0 # Dump detailed power output each cycle
-power_trace_enabled                    0 # produce a file for the power trace (1=On, 0=Off)
-power_trace_zlevel                     6 # Compression level of the power trace output log (0=no comp, 9=highest)
-steady_power_levels_enabled                    0 # produce a file for the steady power levels (1=On, 0=Off)
-steady_state_definition                  8:4 # allowed deviation:number of samples
-gpgpu_max_cycle                        0 # terminates gpu simulation early (0 = no limit)
-gpgpu_max_insn                         0 # terminates gpu simulation early (0 = no limit)
-gpgpu_max_cta                          0 # terminates gpu simulation early (0 = no limit)
-gpgpu_runtime_stat                   500 # display runtime statistics such as dram utilization {<freq>:<flag>}
-liveness_message_freq                    1 # Minimum number of seconds between simulation liveness messages (0 = always print)
-gpgpu_flush_l1_cache                    0 # Flush L1 cache at the end of each kernel call
-gpgpu_flush_l2_cache                    0 # Flush L2 cache at the end of each kernel call
-gpgpu_deadlock_detect                    1 # Stop the simulation at deadlock (1=on (default), 0=off)
-gpgpu_ptx_instruction_classification                    0 # if enabled will classify ptx instruction types per kernel (Max 255 kernels now)
-gpgpu_ptx_sim_mode                     0 # Select between Performance (default) or Functional simulation (1)
-gpgpu_clock_domains 700.0:700.0:700.0:924.0 # Clock Domain Frequencies in MhZ {<Core Clock>:<ICNT Clock>:<L2 Clock>:<DRAM Clock>}
-gpgpu_max_concurrent_kernel                    8 # maximum kernels that can run concurrently on GPU
-gpgpu_cflog_interval                    0 # Interval between each snapshot in control flow logger
-visualizer_enabled                     0 # Turn on visualizer output (1=On, 0=Off)
-visualizer_outputfile                 NULL # Specifies the output log file for visualizer
-visualizer_zlevel                      6 # Compression level of the visualizer output log (0=no comp, 9=highest)
-trace_enabled                          0 # Turn on traces
-trace_components                    none # comma seperated list of traces to enable. Complete list found in trace_streams.tup. Default none
-trace_sampling_core                    0 # The core which is printed using CORE_DPRINTF. Default 0
-trace_sampling_memory_partition                   -1 # The memory partition which is printed using MEMPART_DPRINTF. Default -1 (i.e. all)
-enable_ptx_file_line_stats                    1 # Turn on PTX source line statistic profiling. (1 = On)
-ptx_line_stats_filename gpgpu_inst_stats.txt # Output file for PTX source line statistics.
-save_embedded_ptx                      0 # saves ptx files embedded in binary as <n>.ptx
-keep                                   0 # keep intermediate files created by GPGPU-Sim when interfacing with external programs
-gpgpu_ptx_save_converted_ptxplus                    0 # Saved converted ptxplus to a file
-ptx_opcode_latency_int         4,13,4,5,145 # Opcode latencies for integers <ADD,MAX,MUL,MAD,DIV>Default 1,1,19,25,145
-ptx_opcode_latency_fp          4,13,4,5,39 # Opcode latencies for single precision floating points <ADD,MAX,MUL,MAD,DIV>Default 1,1,1,1,30
-ptx_opcode_latency_dp         8,19,8,8,330 # Opcode latencies for double precision floating points <ADD,MAX,MUL,MAD,DIV>Default 8,8,8,8,335
-ptx_opcode_initiation_int            1,2,2,1,8 # Opcode initiation intervals for integers <ADD,MAX,MUL,MAD,DIV>Default 1,1,4,4,32
-ptx_opcode_initiation_fp            1,2,1,1,4 # Opcode initiation intervals for single precision floating points <ADD,MAX,MUL,MAD,DIV>Default 1,1,1,1,5
-ptx_opcode_initiation_dp         8,16,8,8,130 # Opcode initiation intervals for double precision floating points <ADD,MAX,MUL,MAD,DIV>Default 8,8,8,8,130
DRAM Timing Options:
nbk                                    16 # number of banks
CCD                                     2 # column to column delay
RRD                                     6 # minimal delay between activation of rows in different banks
RCD                                    12 # row to column delay
RAS                                    28 # time needed to activate row
RP                                     12 # time needed to precharge (deactivate) row
RC                                     40 # row cycle time
CDLR                                    5 # switching from write to read (changes tWTR)
WR                                     12 # last data-in to row precharge
CL                                     12 # CAS latency
WL                                      4 # Write latency
nbkgrp                                  4 # number of bank groups
CCDL                                    3 # column to column delay between accesses to different bank groups
RTPL                                    2 # read to precharge delay between accesses to different bank groups
Total number of memory sub partition = 12
addr_dec_mask[CHIP]  = 0000000000000000 	high:64 low:0
addr_dec_mask[BK]    = 000000000000e100 	high:16 low:8
addr_dec_mask[ROW]   = 000000000fff0000 	high:28 low:16
addr_dec_mask[COL]   = 0000000000001eff 	high:13 low:0
addr_dec_mask[BURST] = 000000000000003f 	high:6 low:0
sub_partition_id_mask = 0000000000000100
GPGPU-Sim uArch: clock freqs: 700000000.000000:700000000.000000:700000000.000000:924000000.000000
GPGPU-Sim uArch: clock periods: 0.00000000142857142857:0.00000000142857142857:0.00000000142857142857:0.00000000108225108225
*** Initializing Memory Statistics ***
GPGPU-Sim uArch: interconnect node map (shaderID+MemID to icntID)
GPGPU-Sim uArch: Memory nodes ID start from index: 15
GPGPU-Sim uArch:    0   1   2   3   4
GPGPU-Sim uArch:    5   6   7   8   9
GPGPU-Sim uArch:   10  11  12  13  14
GPGPU-Sim uArch:   15  16  17  18  19
GPGPU-Sim uArch:   20  21  22  23  24
GPGPU-Sim uArch:   25  26
GPGPU-Sim uArch: interconnect node reverse map (icntID to shaderID+MemID)
GPGPU-Sim uArch: Memory nodes start from ID: 15
GPGPU-Sim uArch:    0   1   2   3   4
GPGPU-Sim uArch:    5   6   7   8   9
GPGPU-Sim uArch:   10  11  12  13  14
GPGPU-Sim uArch:   15  16  17  18  19
GPGPU-Sim uArch:   20  21  22  23  24
GPGPU-Sim uArch:   25  26
a5bfea9a69faaeaeb73abbaec6868abd  /sciclone/data10/hwang07/adwait/applications/benchmarks/rodinia/cuda/streamcluster/gpgpu_ptx_sim__streamcluster
GPGPU-Sim uArch: performance model initialization complete.
GPGPU-Sim PTX: __cudaRegisterFatBinary, fat_cubin_handle = 1, filename=streamcluster_cuda.cu
self exe links to: /sciclone/data10/hwang07/adwait/applications/benchmarks/rodinia/cuda/streamcluster/gpgpu_ptx_sim__streamcluster
Running md5sum using "md5sum /sciclone/data10/hwang07/adwait/applications/benchmarks/rodinia/cuda/streamcluster/gpgpu_ptx_sim__streamcluster "
Parsing file _cuobjdump_complete_output_VsepSf
######### cuobjdump parser ########
## Adding new section ELF
Adding arch: sm_20
Adding identifier: streamcluster_cuda.cu
## Adding new section PTX
Adding ptx filename: _cuobjdump_1.ptx
Adding arch: sm_20
Adding identifier: streamcluster_cuda.cu
Done parsing!!!
GPGPU-Sim PTX: __cudaRegisterFunction _Z12pgain_kerneliilP5PointiPfS1_PiPb : hostFun 0x0x404fe3, fat_cubin_handle = 1
GPGPU-Sim PTX: allocating shared region for "coord_s" from 0x0 to 0x0 (shared memory space)
GPGPU-Sim PTX: instruction assembly for function '_Z12pgain_kerneliilP5PointiPfS1_PiPb'...   done.
GPGPU-Sim PTX: finding reconvergence points for '_Z12pgain_kerneliilP5PointiPfS1_PiPb'...
GPGPU-Sim PTX: Finding dominators for '_Z12pgain_kerneliilP5PointiPfS1_PiPb'...
GPGPU-Sim PTX: Finding immediate dominators for '_Z12pgain_kerneliilP5PointiPfS1_PiPb'...
GPGPU-Sim PTX: Finding postdominators for '_Z12pgain_kerneliilP5PointiPfS1_PiPb'...
GPGPU-Sim PTX: Finding immediate postdominators for '_Z12pgain_kerneliilP5PointiPfS1_PiPb'...
GPGPU-Sim PTX: pre-decoding instructions for '_Z12pgain_kerneliilP5PointiPfS1_PiPb'...
GPGPU-Sim PTX: reconvergence points for _Z12pgain_kerneliilP5PointiPfS1_PiPb...
GPGPU-Sim PTX:  1 (potential) branch divergence @  PC=0x030 (_1.ptx:76) @%p2 bra $Lt_0_3842;
GPGPU-Sim PTX:    immediate post dominator      @  PC=0x0e0 (_1.ptx:103) mov.u64 %rd1, coord_s;
GPGPU-Sim PTX:  2 (potential) branch divergence @  PC=0x038 (_1.ptx:77) @!%p1 bra $Lt_0_4354;
GPGPU-Sim PTX:    immediate post dominator      @  PC=0x0d8 (_1.ptx:101) mov.u64 %rd1, coord_s;
GPGPU-Sim PTX:  3 (potential) branch divergence @  PC=0x0d0 (_1.ptx:99) @%p3 bra $Lt_0_4866;
GPGPU-Sim PTX:    immediate post dominator      @  PC=0x0d8 (_1.ptx:101) mov.u64 %rd1, coord_s;
GPGPU-Sim PTX:  4 (potential) branch divergence @  PC=0x110 (_1.ptx:110) @!%p1 bra $Lt_0_7170;
GPGPU-Sim PTX:    immediate post dominator      @  PC=0x218 (_1.ptx:149) ld.param.u64 %rd15, [__cudaparm__Z12pgain_kerneliilP5PointiPfS1_PiPb_p];
GPGPU-Sim PTX:  5 (potential) branch divergence @  PC=0x1d8 (_1.ptx:138) @%p4 bra $Lt_0_5890;
GPGPU-Sim PTX:    immediate post dominator      @  PC=0x1e0 (_1.ptx:139) bra.uni $Lt_0_5378;
GPGPU-Sim PTX:  6 (potential) branch divergence @  PC=0x1e0 (_1.ptx:139) bra.uni $Lt_0_5378;
GPGPU-Sim PTX:    immediate post dominator      @  PC=0x218 (_1.ptx:149) ld.param.u64 %rd15, [__cudaparm__Z12pgain_kerneliilP5PointiPfS1_PiPb_p];
GPGPU-Sim PTX:  7 (potential) branch divergence @  PC=0x288 (_1.ptx:164) @!%p5 bra $Lt_0_6658;
GPGPU-Sim PTX:    immediate post dominator      @  PC=0x358 (_1.ptx:197) exit;
GPGPU-Sim PTX:  8 (potential) branch divergence @  PC=0x2e8 (_1.ptx:178) bra.uni $Lt_0_6402;
GPGPU-Sim PTX:    immediate post dominator      @  PC=0x358 (_1.ptx:197) exit;
GPGPU-Sim PTX: ... end of reconvergence points for _Z12pgain_kerneliilP5PointiPfS1_PiPb
GPGPU-Sim PTX: ... done pre-decoding instructions for '_Z12pgain_kerneliilP5PointiPfS1_PiPb'.
GPGPU-Sim PTX: finished parsing EMBEDDED .ptx file _1.ptx
Adding _cuobjdump_1.ptx with cubin handle 1
GPGPU-Sim PTX: extracting embedded .ptx to temporary file "_ptx_h9yzcO"
Running: cat _ptx_h9yzcO | sed 's/.version 1.5/.version 1.4/' | sed 's/, texmode_independent//' | sed 's/\(\.extern \.const\[1\] .b8 \w\+\)\[\]/\1\[1\]/' | sed 's/const\[.\]/const\[0\]/g' > _ptx2_xxQlkr
GPGPU-Sim PTX: generating ptxinfo using "$CUDA_INSTALL_PATH/bin/ptxas --gpu-name=sm_20 -v _ptx2_xxQlkr --output-file  /dev/null 2> _ptx_h9yzcOinfo"
GPGPU-Sim PTX: Kernel '_Z12pgain_kerneliilP5PointiPfS1_PiPb' : regs=12, lmem=0, smem=0, cmem=96
GPGPU-Sim PTX: removing ptxinfo using "rm -f _ptx_h9yzcO _ptx2_xxQlkr _ptx_h9yzcOinfo"
GPGPU-Sim PTX: loading globals with explicit initializers... 
GPGPU-Sim PTX: finished loading globals (0 bytes total).
GPGPU-Sim PTX: loading constants with explicit initializers...  done.
PARSEC Benchmark Suite

GPGPU-Sim PTX: cudaLaunch for 0x0x404fe3 (mode=performance simulation) on stream 0
GPGPU-Sim PTX: pushing kernel '_Z12pgain_kerneliilP5PointiPfS1_PiPb' to stream 0, gridDim= (128,1,1) blockDim = (512,1,1) 
kernel '_Z12pgain_kerneliilP5PointiPfS1_PiPb' transfer to GPU hardware scheduler
GPGPU-Sim uArch: Shader 1 bind to kernel 1 '_Z12pgain_kerneliilP5PointiPfS1_PiPb'
GPGPU-Sim uArch: CTA/core = 3, limited by: threads
GPGPU-Sim uArch: core:  1, cta: 0 initialized @(1,0)
GPGPU-Sim uArch: Shader 2 bind to kernel 1 '_Z12pgain_kerneliilP5PointiPfS1_PiPb'
GPGPU-Sim uArch: core:  2, cta: 0 initialized @(1,0)
GPGPU-Sim uArch: Shader 3 bind to kernel 1 '_Z12pgain_kerneliilP5PointiPfS1_PiPb'
GPGPU-Sim uArch: core:  3, cta: 0 initialized @(1,0)
GPGPU-Sim uArch: Shader 4 bind to kernel 1 '_Z12pgain_kerneliilP5PointiPfS1_PiPb'
GPGPU-Sim uArch: core:  4, cta: 0 initialized @(1,0)
GPGPU-Sim uArch: Shader 5 bind to kernel 1 '_Z12pgain_kerneliilP5PointiPfS1_PiPb'
GPGPU-Sim uArch: core:  5, cta: 0 initialized @(1,0)
GPGPU-Sim uArch: Shader 6 bind to kernel 1 '_Z12pgain_kerneliilP5PointiPfS1_PiPb'
GPGPU-Sim uArch: core:  6, cta: 0 initialized @(1,0)
GPGPU-Sim uArch: Shader 7 bind to kernel 1 '_Z12pgain_kerneliilP5PointiPfS1_PiPb'
GPGPU-Sim uArch: core:  7, cta: 0 initialized @(1,0)
GPGPU-Sim uArch: Shader 8 bind to kernel 1 '_Z12pgain_kerneliilP5PointiPfS1_PiPb'
GPGPU-Sim uArch: core:  8, cta: 0 initialized @(1,0)
GPGPU-Sim uArch: Shader 9 bind to kernel 1 '_Z12pgain_kerneliilP5PointiPfS1_PiPb'
GPGPU-Sim uArch: core:  9, cta: 0 initialized @(1,0)
GPGPU-Sim uArch: Shader 10 bind to kernel 1 '_Z12pgain_kerneliilP5PointiPfS1_PiPb'
GPGPU-Sim uArch: core: 10, cta: 0 initialized @(1,0)
GPGPU-Sim uArch: Shader 11 bind to kernel 1 '_Z12pgain_kerneliilP5PointiPfS1_PiPb'
GPGPU-Sim uArch: core: 11, cta: 0 initialized @(1,0)
GPGPU-Sim uArch: Shader 12 bind to kernel 1 '_Z12pgain_kerneliilP5PointiPfS1_PiPb'
GPGPU-Sim uArch: core: 12, cta: 0 initialized @(1,0)
GPGPU-Sim uArch: Shader 13 bind to kernel 1 '_Z12pgain_kerneliilP5PointiPfS1_PiPb'
GPGPU-Sim uArch: core: 13, cta: 0 initialized @(1,0)
GPGPU-Sim uArch: Shader 14 bind to kernel 1 '_Z12pgain_kerneliilP5PointiPfS1_PiPb'
GPGPU-Sim uArch: core: 14, cta: 0 initialized @(1,0)
GPGPU-Sim uArch: Shader 0 bind to kernel 1 '_Z12pgain_kerneliilP5PointiPfS1_PiPb'
GPGPU-Sim uArch: core:  0, cta: 0 initialized @(1,0)
GPGPU-Sim uArch: core:  1, cta: 1 initialized @(2,0)
GPGPU-Sim uArch: core:  2, cta: 1 initialized @(2,0)
GPGPU-Sim uArch: core:  3, cta: 1 initialized @(2,0)
GPGPU-Sim uArch: core:  4, cta: 1 initialized @(2,0)
GPGPU-Sim uArch: core:  5, cta: 1 initialized @(2,0)
GPGPU-Sim uArch: core:  6, cta: 1 initialized @(2,0)
GPGPU-Sim uArch: core:  7, cta: 1 initialized @(2,0)
GPGPU-Sim uArch: core:  8, cta: 1 initialized @(2,0)
GPGPU-Sim uArch: core:  9, cta: 1 initialized @(2,0)
GPGPU-Sim uArch: core: 10, cta: 1 initialized @(2,0)
GPGPU-Sim uArch: core: 11, cta: 1 initialized @(2,0)
GPGPU-Sim uArch: core: 12, cta: 1 initialized @(2,0)
GPGPU-Sim uArch: core: 13, cta: 1 initialized @(2,0)
GPGPU-Sim uArch: core: 14, cta: 1 initialized @(2,0)
GPGPU-Sim uArch: core:  0, cta: 1 initialized @(2,0)
GPGPU-Sim uArch: core:  1, cta: 2 initialized @(3,0)
GPGPU-Sim uArch: core:  2, cta: 2 initialized @(3,0)
GPGPU-Sim uArch: core:  3, cta: 2 initialized @(3,0)
GPGPU-Sim uArch: core:  4, cta: 2 initialized @(3,0)
GPGPU-Sim uArch: core:  5, cta: 2 initialized @(3,0)
GPGPU-Sim uArch: core:  6, cta: 2 initialized @(3,0)
GPGPU-Sim uArch: core:  7, cta: 2 initialized @(3,0)
GPGPU-Sim uArch: core:  8, cta: 2 initialized @(3,0)
GPGPU-Sim uArch: core:  9, cta: 2 initialized @(3,0)
GPGPU-Sim uArch: core: 10, cta: 2 initialized @(3,0)
GPGPU-Sim uArch: core: 11, cta: 2 initialized @(3,0)
GPGPU-Sim uArch: core: 12, cta: 2 initialized @(3,0)
GPGPU-Sim uArch: core: 13, cta: 2 initialized @(3,0)
GPGPU-Sim uArch: core: 14, cta: 2 initialized @(3,0)
GPGPU-Sim uArch: core:  0, cta: 2 initialized @(3,0)
GPGPU-Sim uArch: cycles simulated: 500  inst.: 960 (ipc= 1.9) sim_rate=64 (inst/sec) elapsed = 0:0:00:15 / Tue Mar 22 12:39:56 2016
GPGPU-Sim uArch: cycles simulated: 1000  inst.: 23845 (ipc=23.8) sim_rate=1490 (inst/sec) elapsed = 0:0:00:16 / Tue Mar 22 12:39:57 2016
GPGPU-Sim PTX: 100000 instructions simulated : ctaid=(36,0,0) tid=(442,0,0)
GPGPU-Sim uArch: cycles simulated: 5000  inst.: 108570 (ipc=21.7) sim_rate=6386 (inst/sec) elapsed = 0:0:00:17 / Tue Mar 22 12:39:58 2016
GPGPU-Sim uArch: cycles simulated: 9500  inst.: 110145 (ipc=11.6) sim_rate=6119 (inst/sec) elapsed = 0:0:00:18 / Tue Mar 22 12:39:59 2016
GPGPU-Sim uArch: cycles simulated: 14000  inst.: 111685 (ipc= 8.0) sim_rate=5878 (inst/sec) elapsed = 0:0:00:19 / Tue Mar 22 12:40:00 2016
GPGPU-Sim uArch: cycles simulated: 18500  inst.: 113190 (ipc= 6.1) sim_rate=5659 (inst/sec) elapsed = 0:0:00:20 / Tue Mar 22 12:40:01 2016
GPGPU-Sim uArch: cycles simulated: 23000  inst.: 114765 (ipc= 5.0) sim_rate=5465 (inst/sec) elapsed = 0:0:00:21 / Tue Mar 22 12:40:02 2016
GPGPU-Sim uArch: cycles simulated: 28000  inst.: 116480 (ipc= 4.2) sim_rate=5294 (inst/sec) elapsed = 0:0:00:22 / Tue Mar 22 12:40:03 2016
GPGPU-Sim uArch: cycles simulated: 32000  inst.: 117886 (ipc= 3.7) sim_rate=5125 (inst/sec) elapsed = 0:0:00:23 / Tue Mar 22 12:40:04 2016
GPGPU-Sim uArch: cycles simulated: 36500  inst.: 119386 (ipc= 3.3) sim_rate=4974 (inst/sec) elapsed = 0:0:00:24 / Tue Mar 22 12:40:05 2016
GPGPU-Sim uArch: cycles simulated: 40000  inst.: 120645 (ipc= 3.0) sim_rate=4825 (inst/sec) elapsed = 0:0:00:25 / Tue Mar 22 12:40:06 2016
GPGPU-Sim uArch: cycles simulated: 45000  inst.: 122325 (ipc= 2.7) sim_rate=4704 (inst/sec) elapsed = 0:0:00:26 / Tue Mar 22 12:40:07 2016
GPGPU-Sim uArch: cycles simulated: 50000  inst.: 124088 (ipc= 2.5) sim_rate=4595 (inst/sec) elapsed = 0:0:00:27 / Tue Mar 22 12:40:08 2016
GPGPU-Sim uArch: cycles simulated: 54500  inst.: 125582 (ipc= 2.3) sim_rate=4485 (inst/sec) elapsed = 0:0:00:28 / Tue Mar 22 12:40:09 2016
GPGPU-Sim uArch: cycles simulated: 59500  inst.: 127365 (ipc= 2.1) sim_rate=4391 (inst/sec) elapsed = 0:0:00:29 / Tue Mar 22 12:40:10 2016
GPGPU-Sim uArch: cycles simulated: 64500  inst.: 129045 (ipc= 2.0) sim_rate=4301 (inst/sec) elapsed = 0:0:00:30 / Tue Mar 22 12:40:11 2016
GPGPU-Sim uArch: cycles simulated: 69500  inst.: 130784 (ipc= 1.9) sim_rate=4218 (inst/sec) elapsed = 0:0:00:31 / Tue Mar 22 12:40:12 2016
GPGPU-Sim uArch: cycles simulated: 74000  inst.: 132300 (ipc= 1.8) sim_rate=4134 (inst/sec) elapsed = 0:0:00:32 / Tue Mar 22 12:40:13 2016
GPGPU-Sim uArch: cycles simulated: 79000  inst.: 139524 (ipc= 1.8) sim_rate=4228 (inst/sec) elapsed = 0:0:00:33 / Tue Mar 22 12:40:14 2016
GPGPU-Sim PTX: 200000 instructions simulated : ctaid=(2,0,0) tid=(13,0,0)
GPGPU-Sim uArch: cycles simulated: 83000  inst.: 271845 (ipc= 3.3) sim_rate=7995 (inst/sec) elapsed = 0:0:00:34 / Tue Mar 22 12:40:15 2016
GPGPU-Sim PTX: 300000 instructions simulated : ctaid=(3,0,0) tid=(45,0,0)
GPGPU-Sim uArch: cycles simulated: 87000  inst.: 375525 (ipc= 4.3) sim_rate=10729 (inst/sec) elapsed = 0:0:00:35 / Tue Mar 22 12:40:16 2016
GPGPU-Sim PTX: 400000 instructions simulated : ctaid=(9,0,0) tid=(13,0,0)
GPGPU-Sim uArch: cycles simulated: 91000  inst.: 487845 (ipc= 5.4) sim_rate=13551 (inst/sec) elapsed = 0:0:00:36 / Tue Mar 22 12:40:17 2016
GPGPU-Sim PTX: 500000 instructions simulated : ctaid=(0,0,0) tid=(45,0,0)
GPGPU-Sim uArch: cycles simulated: 94500  inst.: 582885 (ipc= 6.2) sim_rate=15753 (inst/sec) elapsed = 0:0:00:37 / Tue Mar 22 12:40:18 2016
GPGPU-Sim PTX: 600000 instructions simulated : ctaid=(1,0,0) tid=(45,0,0)
GPGPU-Sim uArch: cycles simulated: 98500  inst.: 686981 (ipc= 7.0) sim_rate=18078 (inst/sec) elapsed = 0:0:00:38 / Tue Mar 22 12:40:19 2016
GPGPU-Sim PTX: 700000 instructions simulated : ctaid=(6,0,0) tid=(13,0,0)
GPGPU-Sim uArch: cycles simulated: 102000  inst.: 781861 (ipc= 7.7) sim_rate=20047 (inst/sec) elapsed = 0:0:00:39 / Tue Mar 22 12:40:20 2016
GPGPU-Sim PTX: 800000 instructions simulated : ctaid=(7,0,0) tid=(13,0,0)
GPGPU-Sim PTX: 900000 instructions simulated : ctaid=(8,0,0) tid=(45,0,0)
GPGPU-Sim uArch: cycles simulated: 106500  inst.: 905765 (ipc= 8.5) sim_rate=22644 (inst/sec) elapsed = 0:0:00:40 / Tue Mar 22 12:40:21 2016
GPGPU-Sim PTX: 1000000 instructions simulated : ctaid=(14,0,0) tid=(45,0,0)
GPGPU-Sim uArch: cycles simulated: 110500  inst.: 1014885 (ipc= 9.2) sim_rate=24753 (inst/sec) elapsed = 0:0:00:41 / Tue Mar 22 12:40:22 2016
GPGPU-Sim PTX: 1100000 instructions simulated : ctaid=(4,0,0) tid=(13,0,0)
GPGPU-Sim uArch: cycles simulated: 114500  inst.: 1125573 (ipc= 9.8) sim_rate=26799 (inst/sec) elapsed = 0:0:00:42 / Tue Mar 22 12:40:23 2016
GPGPU-Sim PTX: 1200000 instructions simulated : ctaid=(5,0,0) tid=(13,0,0)
GPGPU-Sim uArch: cycles simulated: 118500  inst.: 1230885 (ipc=10.4) sim_rate=28625 (inst/sec) elapsed = 0:0:00:43 / Tue Mar 22 12:40:24 2016
GPGPU-Sim PTX: 1300000 instructions simulated : ctaid=(1,0,0) tid=(13,0,0)
GPGPU-Sim uArch: cycles simulated: 122500  inst.: 1343077 (ipc=11.0) sim_rate=30524 (inst/sec) elapsed = 0:0:00:44 / Tue Mar 22 12:40:25 2016
GPGPU-Sim PTX: 1400000 instructions simulated : ctaid=(8,0,0) tid=(13,0,0)
GPGPU-Sim uArch: cycles simulated: 126500  inst.: 1446885 (ipc=11.4) sim_rate=32153 (inst/sec) elapsed = 0:0:00:45 / Tue Mar 22 12:40:26 2016
GPGPU-Sim PTX: 1500000 instructions simulated : ctaid=(11,0,0) tid=(13,0,0)
GPGPU-Sim uArch: cycles simulated: 131000  inst.: 1567941 (ipc=12.0) sim_rate=34085 (inst/sec) elapsed = 0:0:00:46 / Tue Mar 22 12:40:27 2016
GPGPU-Sim PTX: 1600000 instructions simulated : ctaid=(1,0,0) tid=(45,0,0)
GPGPU-Sim uArch: cycles simulated: 135000  inst.: 1680165 (ipc=12.4) sim_rate=35748 (inst/sec) elapsed = 0:0:00:47 / Tue Mar 22 12:40:28 2016
GPGPU-Sim PTX: 1700000 instructions simulated : ctaid=(14,0,0) tid=(13,0,0)
GPGPU-Sim uArch: cycles simulated: 139000  inst.: 1785445 (ipc=12.8) sim_rate=37196 (inst/sec) elapsed = 0:0:00:48 / Tue Mar 22 12:40:29 2016
GPGPU-Sim PTX: 1800000 instructions simulated : ctaid=(12,0,0) tid=(13,0,0)
GPGPU-Sim uArch: cycles simulated: 143000  inst.: 1896165 (ipc=13.3) sim_rate=38697 (inst/sec) elapsed = 0:0:00:49 / Tue Mar 22 12:40:30 2016
GPGPU-Sim PTX: 1900000 instructions simulated : ctaid=(2,0,0) tid=(13,0,0)
GPGPU-Sim PTX: 2000000 instructions simulated : ctaid=(8,0,0) tid=(13,0,0)
GPGPU-Sim uArch: cycles simulated: 147000  inst.: 2005093 (ipc=13.6) sim_rate=40101 (inst/sec) elapsed = 0:0:00:50 / Tue Mar 22 12:40:31 2016
GPGPU-Sim PTX: 2100000 instructions simulated : ctaid=(9,0,0) tid=(45,0,0)
GPGPU-Sim uArch: cycles simulated: 151000  inst.: 2112165 (ipc=14.0) sim_rate=41415 (inst/sec) elapsed = 0:0:00:51 / Tue Mar 22 12:40:32 2016
GPGPU-Sim PTX: 2200000 instructions simulated : ctaid=(10,0,0) tid=(45,0,0)
GPGPU-Sim uArch: cycles simulated: 154500  inst.: 2207205 (ipc=14.3) sim_rate=42446 (inst/sec) elapsed = 0:0:00:52 / Tue Mar 22 12:40:33 2016
GPGPU-Sim PTX: 2300000 instructions simulated : ctaid=(1,0,0) tid=(13,0,0)
GPGPU-Sim uArch: cycles simulated: 158000  inst.: 2302245 (ipc=14.6) sim_rate=43438 (inst/sec) elapsed = 0:0:00:53 / Tue Mar 22 12:40:34 2016
GPGPU-Sim PTX: 2400000 instructions simulated : ctaid=(4,0,0) tid=(45,0,0)
GPGPU-Sim uArch: cycles simulated: 162500  inst.: 2412429 (ipc=14.8) sim_rate=44674 (inst/sec) elapsed = 0:0:00:54 / Tue Mar 22 12:40:35 2016
GPGPU-Sim uArch: cycles simulated: 165500  inst.: 2484181 (ipc=15.0) sim_rate=45166 (inst/sec) elapsed = 0:0:00:55 / Tue Mar 22 12:40:36 2016
GPGPU-Sim PTX: 2500000 instructions simulated : ctaid=(10,0,0) tid=(85,0,0)
GPGPU-Sim uArch: cycles simulated: 168500  inst.: 2569749 (ipc=15.3) sim_rate=45888 (inst/sec) elapsed = 0:0:00:56 / Tue Mar 22 12:40:37 2016
GPGPU-Sim PTX: 2600000 instructions simulated : ctaid=(4,0,0) tid=(85,0,0)
GPGPU-Sim uArch: cycles simulated: 171500  inst.: 2651285 (ipc=15.5) sim_rate=46513 (inst/sec) elapsed = 0:0:00:57 / Tue Mar 22 12:40:38 2016
GPGPU-Sim PTX: 2700000 instructions simulated : ctaid=(8,0,0) tid=(117,0,0)
GPGPU-Sim uArch: cycles simulated: 173500  inst.: 2708245 (ipc=15.6) sim_rate=46693 (inst/sec) elapsed = 0:0:00:58 / Tue Mar 22 12:40:39 2016
GPGPU-Sim uArch: cycles simulated: 176000  inst.: 2773365 (ipc=15.8) sim_rate=47006 (inst/sec) elapsed = 0:0:00:59 / Tue Mar 22 12:40:40 2016
GPGPU-Sim PTX: 2800000 instructions simulated : ctaid=(4,0,0) tid=(117,0,0)
GPGPU-Sim uArch: cycles simulated: 178500  inst.: 2841621 (ipc=15.9) sim_rate=47360 (inst/sec) elapsed = 0:0:01:00 / Tue Mar 22 12:40:41 2016
GPGPU-Sim PTX: 2900000 instructions simulated : ctaid=(2,0,0) tid=(85,0,0)
GPGPU-Sim uArch: cycles simulated: 181000  inst.: 2910741 (ipc=16.1) sim_rate=47717 (inst/sec) elapsed = 0:0:01:01 / Tue Mar 22 12:40:42 2016
GPGPU-Sim uArch: cycles simulated: 184000  inst.: 2991413 (ipc=16.3) sim_rate=48248 (inst/sec) elapsed = 0:0:01:02 / Tue Mar 22 12:40:43 2016
GPGPU-Sim PTX: 3000000 instructions simulated : ctaid=(13,0,0) tid=(117,0,0)
GPGPU-Sim uArch: cycles simulated: 187000  inst.: 3074901 (ipc=16.4) sim_rate=48807 (inst/sec) elapsed = 0:0:01:03 / Tue Mar 22 12:40:44 2016
GPGPU-Sim PTX: 3100000 instructions simulated : ctaid=(3,0,0) tid=(117,0,0)
GPGPU-Sim uArch: cycles simulated: 190000  inst.: 3153077 (ipc=16.6) sim_rate=49266 (inst/sec) elapsed = 0:0:01:04 / Tue Mar 22 12:40:45 2016
GPGPU-Sim PTX: 3200000 instructions simulated : ctaid=(8,0,0) tid=(117,0,0)
GPGPU-Sim uArch: cycles simulated: 193000  inst.: 3237365 (ipc=16.8) sim_rate=49805 (inst/sec) elapsed = 0:0:01:05 / Tue Mar 22 12:40:46 2016
GPGPU-Sim PTX: 3300000 instructions simulated : ctaid=(0,0,0) tid=(85,0,0)
GPGPU-Sim uArch: cycles simulated: 196000  inst.: 3316821 (ipc=16.9) sim_rate=50254 (inst/sec) elapsed = 0:0:01:06 / Tue Mar 22 12:40:47 2016
GPGPU-Sim PTX: 3400000 instructions simulated : ctaid=(2,0,0) tid=(85,0,0)
GPGPU-Sim uArch: cycles simulated: 199000  inst.: 3397589 (ipc=17.1) sim_rate=50710 (inst/sec) elapsed = 0:0:01:07 / Tue Mar 22 12:40:48 2016
GPGPU-Sim uArch: cycles simulated: 202000  inst.: 3480981 (ipc=17.2) sim_rate=51190 (inst/sec) elapsed = 0:0:01:08 / Tue Mar 22 12:40:49 2016
GPGPU-Sim PTX: 3500000 instructions simulated : ctaid=(10,0,0) tid=(117,0,0)
GPGPU-Sim uArch: cycles simulated: 205000  inst.: 3561429 (ipc=17.4) sim_rate=51614 (inst/sec) elapsed = 0:0:01:09 / Tue Mar 22 12:40:50 2016
GPGPU-Sim PTX: 3600000 instructions simulated : ctaid=(5,0,0) tid=(85,0,0)
GPGPU-Sim uArch: cycles simulated: 208000  inst.: 3642901 (ipc=17.5) sim_rate=52041 (inst/sec) elapsed = 0:0:01:10 / Tue Mar 22 12:40:51 2016
GPGPU-Sim PTX: 3700000 instructions simulated : ctaid=(6,0,0) tid=(85,0,0)
GPGPU-Sim uArch: cycles simulated: 211000  inst.: 3723797 (ipc=17.6) sim_rate=52447 (inst/sec) elapsed = 0:0:01:11 / Tue Mar 22 12:40:52 2016
GPGPU-Sim PTX: 3800000 instructions simulated : ctaid=(4,0,0) tid=(85,0,0)
GPGPU-Sim uArch: cycles simulated: 214000  inst.: 3805653 (ipc=17.8) sim_rate=52856 (inst/sec) elapsed = 0:0:01:12 / Tue Mar 22 12:40:53 2016
GPGPU-Sim uArch: cycles simulated: 217000  inst.: 3886613 (ipc=17.9) sim_rate=53241 (inst/sec) elapsed = 0:0:01:13 / Tue Mar 22 12:40:54 2016
GPGPU-Sim PTX: 3900000 instructions simulated : ctaid=(14,0,0) tid=(117,0,0)
GPGPU-Sim uArch: cycles simulated: 220500  inst.: 3980789 (ipc=18.1) sim_rate=53794 (inst/sec) elapsed = 0:0:01:14 / Tue Mar 22 12:40:55 2016
GPGPU-Sim PTX: 4000000 instructions simulated : ctaid=(10,0,0) tid=(117,0,0)
GPGPU-Sim uArch: cycles simulated: 223500  inst.: 4063125 (ipc=18.2) sim_rate=54175 (inst/sec) elapsed = 0:0:01:15 / Tue Mar 22 12:40:56 2016
GPGPU-Sim PTX: 4100000 instructions simulated : ctaid=(11,0,0) tid=(85,0,0)
GPGPU-Sim uArch: cycles simulated: 226500  inst.: 4143381 (ipc=18.3) sim_rate=54518 (inst/sec) elapsed = 0:0:01:16 / Tue Mar 22 12:40:57 2016
GPGPU-Sim PTX: 4200000 instructions simulated : ctaid=(6,0,0) tid=(85,0,0)
GPGPU-Sim uArch: cycles simulated: 229500  inst.: 4226869 (ipc=18.4) sim_rate=54894 (inst/sec) elapsed = 0:0:01:17 / Tue Mar 22 12:40:58 2016
GPGPU-Sim PTX: 4300000 instructions simulated : ctaid=(1,0,0) tid=(85,0,0)
GPGPU-Sim uArch: cycles simulated: 232500  inst.: 4307541 (ipc=18.5) sim_rate=55224 (inst/sec) elapsed = 0:0:01:18 / Tue Mar 22 12:40:59 2016
GPGPU-Sim uArch: cycles simulated: 235500  inst.: 4387061 (ipc=18.6) sim_rate=55532 (inst/sec) elapsed = 0:0:01:19 / Tue Mar 22 12:41:00 2016
GPGPU-Sim PTX: 4400000 instructions simulated : ctaid=(3,0,0) tid=(117,0,0)
GPGPU-Sim uArch: cycles simulated: 238500  inst.: 4471253 (ipc=18.7) sim_rate=55890 (inst/sec) elapsed = 0:0:01:20 / Tue Mar 22 12:41:01 2016
GPGPU-Sim PTX: 4500000 instructions simulated : ctaid=(7,0,0) tid=(117,0,0)
GPGPU-Sim uArch: cycles simulated: 241500  inst.: 4549589 (ipc=18.8) sim_rate=56167 (inst/sec) elapsed = 0:0:01:21 / Tue Mar 22 12:41:02 2016
GPGPU-Sim PTX: 4600000 instructions simulated : ctaid=(3,0,0) tid=(85,0,0)
GPGPU-Sim uArch: cycles simulated: 244500  inst.: 4631637 (ipc=18.9) sim_rate=56483 (inst/sec) elapsed = 0:0:01:22 / Tue Mar 22 12:41:03 2016
GPGPU-Sim PTX: 4700000 instructions simulated : ctaid=(10,0,0) tid=(142,0,0)
GPGPU-Sim uArch: cycles simulated: 247500  inst.: 4718971 (ipc=19.1) sim_rate=56855 (inst/sec) elapsed = 0:0:01:23 / Tue Mar 22 12:41:04 2016
GPGPU-Sim PTX: 4800000 instructions simulated : ctaid=(4,0,0) tid=(162,0,0)
GPGPU-Sim uArch: cycles simulated: 251000  inst.: 4816155 (ipc=19.2) sim_rate=57335 (inst/sec) elapsed = 0:0:01:24 / Tue Mar 22 12:41:05 2016
GPGPU-Sim PTX: 4900000 instructions simulated : ctaid=(10,0,0) tid=(162,0,0)
GPGPU-Sim uArch: cycles simulated: 254500  inst.: 4911131 (ipc=19.3) sim_rate=57778 (inst/sec) elapsed = 0:0:01:25 / Tue Mar 22 12:41:06 2016
GPGPU-Sim uArch: cycles simulated: 257500  inst.: 4993403 (ipc=19.4) sim_rate=58062 (inst/sec) elapsed = 0:0:01:26 / Tue Mar 22 12:41:07 2016
GPGPU-Sim PTX: 5000000 instructions simulated : ctaid=(12,0,0) tid=(130,0,0)
GPGPU-Sim uArch: cycles simulated: 261000  inst.: 5088219 (ipc=19.5) sim_rate=58485 (inst/sec) elapsed = 0:0:01:27 / Tue Mar 22 12:41:08 2016
GPGPU-Sim PTX: 5100000 instructions simulated : ctaid=(13,0,0) tid=(130,0,0)
GPGPU-Sim uArch: cycles simulated: 264500  inst.: 5183099 (ipc=19.6) sim_rate=58898 (inst/sec) elapsed = 0:0:01:28 / Tue Mar 22 12:41:09 2016
GPGPU-Sim PTX: 5200000 instructions simulated : ctaid=(9,0,0) tid=(162,0,0)
GPGPU-Sim uArch: cycles simulated: 268000  inst.: 5277947 (ipc=19.7) sim_rate=59302 (inst/sec) elapsed = 0:0:01:29 / Tue Mar 22 12:41:10 2016
GPGPU-Sim PTX: 5300000 instructions simulated : ctaid=(4,0,0) tid=(162,0,0)
GPGPU-Sim uArch: cycles simulated: 271500  inst.: 5372923 (ipc=19.8) sim_rate=59699 (inst/sec) elapsed = 0:0:01:30 / Tue Mar 22 12:41:11 2016
GPGPU-Sim PTX: 5400000 instructions simulated : ctaid=(6,0,0) tid=(130,0,0)
GPGPU-Sim uArch: cycles simulated: 275000  inst.: 5467899 (ipc=19.9) sim_rate=60086 (inst/sec) elapsed = 0:0:01:31 / Tue Mar 22 12:41:12 2016
GPGPU-Sim PTX: 5500000 instructions simulated : ctaid=(14,0,0) tid=(162,0,0)
GPGPU-Sim uArch: cycles simulated: 278000  inst.: 5548027 (ipc=20.0) sim_rate=60304 (inst/sec) elapsed = 0:0:01:32 / Tue Mar 22 12:41:13 2016
GPGPU-Sim PTX: 5600000 instructions simulated : ctaid=(2,0,0) tid=(162,0,0)
GPGPU-Sim uArch: cycles simulated: 281500  inst.: 5642491 (ipc=20.0) sim_rate=60671 (inst/sec) elapsed = 0:0:01:33 / Tue Mar 22 12:41:14 2016
GPGPU-Sim PTX: 5700000 instructions simulated : ctaid=(11,0,0) tid=(162,0,0)
GPGPU-Sim uArch: cycles simulated: 285000  inst.: 5737403 (ipc=20.1) sim_rate=61036 (inst/sec) elapsed = 0:0:01:34 / Tue Mar 22 12:41:15 2016
GPGPU-Sim PTX: 5800000 instructions simulated : ctaid=(5,0,0) tid=(162,0,0)
GPGPU-Sim uArch: cycles simulated: 288500  inst.: 5832443 (ipc=20.2) sim_rate=61394 (inst/sec) elapsed = 0:0:01:35 / Tue Mar 22 12:41:16 2016
GPGPU-Sim PTX: 5900000 instructions simulated : ctaid=(13,0,0) tid=(130,0,0)
GPGPU-Sim uArch: cycles simulated: 292000  inst.: 5927483 (ipc=20.3) sim_rate=61744 (inst/sec) elapsed = 0:0:01:36 / Tue Mar 22 12:41:17 2016
GPGPU-Sim PTX: 6000000 instructions simulated : ctaid=(6,0,0) tid=(130,0,0)
GPGPU-Sim uArch: cycles simulated: 295500  inst.: 6022523 (ipc=20.4) sim_rate=62087 (inst/sec) elapsed = 0:0:01:37 / Tue Mar 22 12:41:18 2016
GPGPU-Sim PTX: 6100000 instructions simulated : ctaid=(4,0,0) tid=(162,0,0)
GPGPU-Sim uArch: cycles simulated: 298500  inst.: 6104859 (ipc=20.5) sim_rate=62294 (inst/sec) elapsed = 0:0:01:38 / Tue Mar 22 12:41:19 2016
GPGPU-Sim PTX: 6200000 instructions simulated : ctaid=(11,0,0) tid=(162,0,0)
GPGPU-Sim uArch: cycles simulated: 302000  inst.: 6198907 (ipc=20.5) sim_rate=62615 (inst/sec) elapsed = 0:0:01:39 / Tue Mar 22 12:41:20 2016
GPGPU-Sim uArch: cycles simulated: 305500  inst.: 6293371 (ipc=20.6) sim_rate=62933 (inst/sec) elapsed = 0:0:01:40 / Tue Mar 22 12:41:21 2016
GPGPU-Sim PTX: 6300000 instructions simulated : ctaid=(3,0,0) tid=(162,0,0)
GPGPU-Sim uArch: cycles simulated: 309000  inst.: 6388283 (ipc=20.7) sim_rate=63250 (inst/sec) elapsed = 0:0:01:41 / Tue Mar 22 12:41:22 2016
GPGPU-Sim PTX: 6400000 instructions simulated : ctaid=(10,0,0) tid=(162,0,0)
GPGPU-Sim uArch: cycles simulated: 312500  inst.: 6483323 (ipc=20.7) sim_rate=63561 (inst/sec) elapsed = 0:0:01:42 / Tue Mar 22 12:41:23 2016
GPGPU-Sim PTX: 6500000 instructions simulated : ctaid=(9,0,0) tid=(130,0,0)
GPGPU-Sim uArch: cycles simulated: 315500  inst.: 6564763 (ipc=20.8) sim_rate=63735 (inst/sec) elapsed = 0:0:01:43 / Tue Mar 22 12:41:24 2016
GPGPU-Sim PTX: 6600000 instructions simulated : ctaid=(7,0,0) tid=(162,0,0)
GPGPU-Sim uArch: cycles simulated: 319000  inst.: 6658875 (ipc=20.9) sim_rate=64027 (inst/sec) elapsed = 0:0:01:44 / Tue Mar 22 12:41:25 2016
GPGPU-Sim PTX: 6700000 instructions simulated : ctaid=(8,0,0) tid=(130,0,0)
GPGPU-Sim uArch: cycles simulated: 322500  inst.: 6752923 (ipc=20.9) sim_rate=64313 (inst/sec) elapsed = 0:0:01:45 / Tue Mar 22 12:41:26 2016
GPGPU-Sim PTX: 6800000 instructions simulated : ctaid=(4,0,0) tid=(162,0,0)
GPGPU-Sim uArch: cycles simulated: 326000  inst.: 6846939 (ipc=21.0) sim_rate=64593 (inst/sec) elapsed = 0:0:01:46 / Tue Mar 22 12:41:27 2016
GPGPU-Sim PTX: 6900000 instructions simulated : ctaid=(5,0,0) tid=(162,0,0)
GPGPU-Sim uArch: cycles simulated: 329000  inst.: 6932921 (ipc=21.1) sim_rate=64793 (inst/sec) elapsed = 0:0:01:47 / Tue Mar 22 12:41:28 2016
GPGPU-Sim PTX: 7000000 instructions simulated : ctaid=(10,0,0) tid=(192,0,0)
GPGPU-Sim uArch: cycles simulated: 332500  inst.: 7035743 (ipc=21.2) sim_rate=65145 (inst/sec) elapsed = 0:0:01:48 / Tue Mar 22 12:41:29 2016
GPGPU-Sim PTX: 7100000 instructions simulated : ctaid=(5,0,0) tid=(192,0,0)
GPGPU-Sim uArch: cycles simulated: 336000  inst.: 7132511 (ipc=21.2) sim_rate=65435 (inst/sec) elapsed = 0:0:01:49 / Tue Mar 22 12:41:30 2016
GPGPU-Sim PTX: 7200000 instructions simulated : ctaid=(12,0,0) tid=(224,0,0)
GPGPU-Sim uArch: cycles simulated: 339500  inst.: 7229951 (ipc=21.3) sim_rate=65726 (inst/sec) elapsed = 0:0:01:50 / Tue Mar 22 12:41:31 2016
GPGPU-Sim PTX: 7300000 instructions simulated : ctaid=(13,0,0) tid=(192,0,0)
GPGPU-Sim uArch: cycles simulated: 343000  inst.: 7324735 (ipc=21.4) sim_rate=65988 (inst/sec) elapsed = 0:0:01:51 / Tue Mar 22 12:41:32 2016
GPGPU-Sim PTX: 7400000 instructions simulated : ctaid=(12,0,0) tid=(224,0,0)
GPGPU-Sim uArch: cycles simulated: 346500  inst.: 7419903 (ipc=21.4) sim_rate=66249 (inst/sec) elapsed = 0:0:01:52 / Tue Mar 22 12:41:33 2016
GPGPU-Sim PTX: 7500000 instructions simulated : ctaid=(7,0,0) tid=(192,0,0)
GPGPU-Sim uArch: cycles simulated: 350000  inst.: 7515135 (ipc=21.5) sim_rate=66505 (inst/sec) elapsed = 0:0:01:53 / Tue Mar 22 12:41:34 2016
GPGPU-Sim PTX: 7600000 instructions simulated : ctaid=(9,0,0) tid=(192,0,0)
GPGPU-Sim uArch: cycles simulated: 353500  inst.: 7609663 (ipc=21.5) sim_rate=66751 (inst/sec) elapsed = 0:0:01:54 / Tue Mar 22 12:41:35 2016
GPGPU-Sim uArch: cycles simulated: 356500  inst.: 7689439 (ipc=21.6) sim_rate=66864 (inst/sec) elapsed = 0:0:01:55 / Tue Mar 22 12:41:36 2016
GPGPU-Sim PTX: 7700000 instructions simulated : ctaid=(4,0,0) tid=(224,0,0)
GPGPU-Sim uArch: cycles simulated: 360000  inst.: 7784479 (ipc=21.6) sim_rate=67107 (inst/sec) elapsed = 0:0:01:56 / Tue Mar 22 12:41:37 2016
GPGPU-Sim PTX: 7800000 instructions simulated : ctaid=(3,0,0) tid=(192,0,0)
GPGPU-Sim uArch: cycles simulated: 363500  inst.: 7879519 (ipc=21.7) sim_rate=67346 (inst/sec) elapsed = 0:0:01:57 / Tue Mar 22 12:41:38 2016
GPGPU-Sim PTX: 7900000 instructions simulated : ctaid=(12,0,0) tid=(192,0,0)
GPGPU-Sim uArch: cycles simulated: 367000  inst.: 7974559 (ipc=21.7) sim_rate=67581 (inst/sec) elapsed = 0:0:01:58 / Tue Mar 22 12:41:39 2016
GPGPU-Sim PTX: 8000000 instructions simulated : ctaid=(13,0,0) tid=(192,0,0)
GPGPU-Sim uArch: cycles simulated: 370500  inst.: 8069599 (ipc=21.8) sim_rate=67811 (inst/sec) elapsed = 0:0:01:59 / Tue Mar 22 12:41:40 2016
GPGPU-Sim PTX: 8100000 instructions simulated : ctaid=(0,0,0) tid=(192,0,0)
GPGPU-Sim uArch: cycles simulated: 374000  inst.: 8164639 (ipc=21.8) sim_rate=68038 (inst/sec) elapsed = 0:0:02:00 / Tue Mar 22 12:41:41 2016
GPGPU-Sim PTX: 8200000 instructions simulated : ctaid=(4,0,0) tid=(224,0,0)
GPGPU-Sim uArch: cycles simulated: 377500  inst.: 8259583 (ipc=21.9) sim_rate=68261 (inst/sec) elapsed = 0:0:02:01 / Tue Mar 22 12:41:42 2016
GPGPU-Sim PTX: 8300000 instructions simulated : ctaid=(0,0,0) tid=(192,0,0)
GPGPU-Sim uArch: cycles simulated: 381000  inst.: 8353983 (ipc=21.9) sim_rate=68475 (inst/sec) elapsed = 0:0:02:02 / Tue Mar 22 12:41:43 2016
GPGPU-Sim PTX: 8400000 instructions simulated : ctaid=(9,0,0) tid=(224,0,0)
GPGPU-Sim uArch: cycles simulated: 384500  inst.: 8448767 (ipc=22.0) sim_rate=68689 (inst/sec) elapsed = 0:0:02:03 / Tue Mar 22 12:41:44 2016
GPGPU-Sim PTX: 8500000 instructions simulated : ctaid=(2,0,0) tid=(192,0,0)
GPGPU-Sim uArch: cycles simulated: 388000  inst.: 8542623 (ipc=22.0) sim_rate=68892 (inst/sec) elapsed = 0:0:02:04 / Tue Mar 22 12:41:45 2016
GPGPU-Sim PTX: 8600000 instructions simulated : ctaid=(9,0,0) tid=(192,0,0)
GPGPU-Sim uArch: cycles simulated: 391500  inst.: 8637407 (ipc=22.1) sim_rate=69099 (inst/sec) elapsed = 0:0:02:05 / Tue Mar 22 12:41:46 2016
GPGPU-Sim PTX: 8700000 instructions simulated : ctaid=(10,0,0) tid=(224,0,0)
GPGPU-Sim uArch: cycles simulated: 395000  inst.: 8732351 (ipc=22.1) sim_rate=69304 (inst/sec) elapsed = 0:0:02:06 / Tue Mar 22 12:41:47 2016
GPGPU-Sim PTX: 8800000 instructions simulated : ctaid=(4,0,0) tid=(192,0,0)
GPGPU-Sim uArch: cycles simulated: 398500  inst.: 8826559 (ipc=22.1) sim_rate=69500 (inst/sec) elapsed = 0:0:02:07 / Tue Mar 22 12:41:48 2016
GPGPU-Sim PTX: 8900000 instructions simulated : ctaid=(3,0,0) tid=(192,0,0)
GPGPU-Sim uArch: cycles simulated: 402000  inst.: 8920607 (ipc=22.2) sim_rate=69692 (inst/sec) elapsed = 0:0:02:08 / Tue Mar 22 12:41:49 2016
GPGPU-Sim PTX: 9000000 instructions simulated : ctaid=(14,0,0) tid=(224,0,0)
GPGPU-Sim uArch: cycles simulated: 405500  inst.: 9014687 (ipc=22.2) sim_rate=69881 (inst/sec) elapsed = 0:0:02:09 / Tue Mar 22 12:41:50 2016
GPGPU-Sim PTX: 9100000 instructions simulated : ctaid=(1,0,0) tid=(224,0,0)
GPGPU-Sim uArch: cycles simulated: 409000  inst.: 9109023 (ipc=22.3) sim_rate=70069 (inst/sec) elapsed = 0:0:02:10 / Tue Mar 22 12:41:51 2016
GPGPU-Sim PTX: 9200000 instructions simulated : ctaid=(6,0,0) tid=(242,0,0)
GPGPU-Sim uArch: cycles simulated: 412500  inst.: 9213117 (ipc=22.3) sim_rate=70329 (inst/sec) elapsed = 0:0:02:11 / Tue Mar 22 12:41:52 2016
GPGPU-Sim PTX: 9300000 instructions simulated : ctaid=(1,0,0) tid=(270,0,0)
GPGPU-Sim uArch: cycles simulated: 416000  inst.: 9311171 (ipc=22.4) sim_rate=70539 (inst/sec) elapsed = 0:0:02:12 / Tue Mar 22 12:41:53 2016
GPGPU-Sim PTX: 9400000 instructions simulated : ctaid=(11,0,0) tid=(302,0,0)
GPGPU-Sim uArch: cycles simulated: 419500  inst.: 9405539 (ipc=22.4) sim_rate=70718 (inst/sec) elapsed = 0:0:02:13 / Tue Mar 22 12:41:54 2016
GPGPU-Sim PTX: 9500000 instructions simulated : ctaid=(9,0,0) tid=(270,0,0)
GPGPU-Sim uArch: cycles simulated: 423000  inst.: 9502243 (ipc=22.5) sim_rate=70912 (inst/sec) elapsed = 0:0:02:14 / Tue Mar 22 12:41:55 2016
GPGPU-Sim PTX: 9600000 instructions simulated : ctaid=(7,0,0) tid=(302,0,0)
GPGPU-Sim uArch: cycles simulated: 426500  inst.: 9597443 (ipc=22.5) sim_rate=71092 (inst/sec) elapsed = 0:0:02:15 / Tue Mar 22 12:41:56 2016
GPGPU-Sim PTX: 9700000 instructions simulated : ctaid=(14,0,0) tid=(270,0,0)
GPGPU-Sim uArch: cycles simulated: 430000  inst.: 9692355 (ipc=22.5) sim_rate=71267 (inst/sec) elapsed = 0:0:02:16 / Tue Mar 22 12:41:57 2016
GPGPU-Sim uArch: cycles simulated: 433500  inst.: 9787235 (ipc=22.6) sim_rate=71439 (inst/sec) elapsed = 0:0:02:17 / Tue Mar 22 12:41:58 2016
GPGPU-Sim PTX: 9800000 instructions simulated : ctaid=(1,0,0) tid=(270,0,0)
GPGPU-Sim PTX: 9900000 instructions simulated : ctaid=(14,0,0) tid=(270,0,0)
GPGPU-Sim uArch: cycles simulated: 437500  inst.: 9891715 (ipc=22.6) sim_rate=71679 (inst/sec) elapsed = 0:0:02:18 / Tue Mar 22 12:41:59 2016
GPGPU-Sim uArch: cycles simulated: 441000  inst.: 9986755 (ipc=22.6) sim_rate=71847 (inst/sec) elapsed = 0:0:02:19 / Tue Mar 22 12:42:00 2016
GPGPU-Sim PTX: 10000000 instructions simulated : ctaid=(3,0,0) tid=(270,0,0)
GPGPU-Sim uArch: cycles simulated: 444000  inst.: 10071811 (ipc=22.7) sim_rate=71941 (inst/sec) elapsed = 0:0:02:20 / Tue Mar 22 12:42:01 2016
GPGPU-Sim PTX: 10100000 instructions simulated : ctaid=(2,0,0) tid=(270,0,0)
GPGPU-Sim uArch: cycles simulated: 446500  inst.: 10137091 (ipc=22.7) sim_rate=71894 (inst/sec) elapsed = 0:0:02:21 / Tue Mar 22 12:42:02 2016
GPGPU-Sim PTX: 10200000 instructions simulated : ctaid=(9,0,0) tid=(270,0,0)
GPGPU-Sim uArch: cycles simulated: 449500  inst.: 10220035 (ipc=22.7) sim_rate=71972 (inst/sec) elapsed = 0:0:02:22 / Tue Mar 22 12:42:03 2016
GPGPU-Sim PTX: 10300000 instructions simulated : ctaid=(4,0,0) tid=(270,0,0)
GPGPU-Sim uArch: cycles simulated: 452500  inst.: 10297859 (ipc=22.8) sim_rate=72013 (inst/sec) elapsed = 0:0:02:23 / Tue Mar 22 12:42:04 2016
GPGPU-Sim PTX: 10400000 instructions simulated : ctaid=(9,0,0) tid=(302,0,0)
GPGPU-Sim uArch: cycles simulated: 456000  inst.: 10392867 (ipc=22.8) sim_rate=72172 (inst/sec) elapsed = 0:0:02:24 / Tue Mar 22 12:42:05 2016
GPGPU-Sim uArch: cycles simulated: 459500  inst.: 10487907 (ipc=22.8) sim_rate=72330 (inst/sec) elapsed = 0:0:02:25 / Tue Mar 22 12:42:06 2016
GPGPU-Sim PTX: 10500000 instructions simulated : ctaid=(14,0,0) tid=(302,0,0)
GPGPU-Sim uArch: cycles simulated: 463000  inst.: 10582947 (ipc=22.9) sim_rate=72485 (inst/sec) elapsed = 0:0:02:26 / Tue Mar 22 12:42:07 2016
GPGPU-Sim PTX: 10600000 instructions simulated : ctaid=(5,0,0) tid=(302,0,0)
GPGPU-Sim uArch: cycles simulated: 466500  inst.: 10677987 (ipc=22.9) sim_rate=72639 (inst/sec) elapsed = 0:0:02:27 / Tue Mar 22 12:42:08 2016
GPGPU-Sim PTX: 10700000 instructions simulated : ctaid=(9,0,0) tid=(270,0,0)
GPGPU-Sim PTX: 10800000 instructions simulated : ctaid=(2,0,0) tid=(270,0,0)
GPGPU-Sim uArch: cycles simulated: 470500  inst.: 10790179 (ipc=22.9) sim_rate=72906 (inst/sec) elapsed = 0:0:02:28 / Tue Mar 22 12:42:09 2016
GPGPU-Sim uArch: cycles simulated: 474000  inst.: 10885123 (ipc=23.0) sim_rate=73054 (inst/sec) elapsed = 0:0:02:29 / Tue Mar 22 12:42:10 2016
GPGPU-Sim PTX: 10900000 instructions simulated : ctaid=(7,0,0) tid=(270,0,0)
GPGPU-Sim uArch: cycles simulated: 477500  inst.: 10979971 (ipc=23.0) sim_rate=73199 (inst/sec) elapsed = 0:0:02:30 / Tue Mar 22 12:42:11 2016
GPGPU-Sim PTX: 11000000 instructions simulated : ctaid=(11,0,0) tid=(270,0,0)
GPGPU-Sim uArch: cycles simulated: 481000  inst.: 11075011 (ipc=23.0) sim_rate=73344 (inst/sec) elapsed = 0:0:02:31 / Tue Mar 22 12:42:12 2016
GPGPU-Sim PTX: 11100000 instructions simulated : ctaid=(10,0,0) tid=(270,0,0)
GPGPU-Sim uArch: cycles simulated: 484500  inst.: 11169603 (ipc=23.1) sim_rate=73484 (inst/sec) elapsed = 0:0:02:32 / Tue Mar 22 12:42:13 2016
GPGPU-Sim PTX: 11200000 instructions simulated : ctaid=(9,0,0) tid=(302,0,0)
GPGPU-Sim uArch: cycles simulated: 488000  inst.: 11264451 (ipc=23.1) sim_rate=73623 (inst/sec) elapsed = 0:0:02:33 / Tue Mar 22 12:42:14 2016
GPGPU-Sim PTX: 11300000 instructions simulated : ctaid=(11,0,0) tid=(302,0,0)
GPGPU-Sim uArch: cycles simulated: 492000  inst.: 11370819 (ipc=23.1) sim_rate=73836 (inst/sec) elapsed = 0:0:02:34 / Tue Mar 22 12:42:15 2016
GPGPU-Sim PTX: 11400000 instructions simulated : ctaid=(12,0,0) tid=(302,0,0)
GPGPU-Sim uArch: cycles simulated: 495000  inst.: 11452586 (ipc=23.1) sim_rate=73887 (inst/sec) elapsed = 0:0:02:35 / Tue Mar 22 12:42:16 2016
GPGPU-Sim PTX: 11500000 instructions simulated : ctaid=(6,0,0) tid=(321,0,0)
GPGPU-Sim uArch: cycles simulated: 498500  inst.: 11557173 (ipc=23.2) sim_rate=74084 (inst/sec) elapsed = 0:0:02:36 / Tue Mar 22 12:42:17 2016
GPGPU-Sim PTX: 11600000 instructions simulated : ctaid=(11,0,0) tid=(341,0,0)
GPGPU-Sim uArch: cycles simulated: 502500  inst.: 11665685 (ipc=23.2) sim_rate=74303 (inst/sec) elapsed = 0:0:02:37 / Tue Mar 22 12:42:18 2016
GPGPU-Sim PTX: 11700000 instructions simulated : ctaid=(6,0,0) tid=(341,0,0)
GPGPU-Sim uArch: cycles simulated: 506000  inst.: 11760757 (ipc=23.2) sim_rate=74435 (inst/sec) elapsed = 0:0:02:38 / Tue Mar 22 12:42:19 2016
GPGPU-Sim PTX: 11800000 instructions simulated : ctaid=(2,0,0) tid=(341,0,0)
GPGPU-Sim uArch: cycles simulated: 509500  inst.: 11855925 (ipc=23.3) sim_rate=74565 (inst/sec) elapsed = 0:0:02:39 / Tue Mar 22 12:42:20 2016
GPGPU-Sim PTX: 11900000 instructions simulated : ctaid=(10,0,0) tid=(341,0,0)
GPGPU-Sim uArch: cycles simulated: 513000  inst.: 11950837 (ipc=23.3) sim_rate=74692 (inst/sec) elapsed = 0:0:02:40 / Tue Mar 22 12:42:21 2016
GPGPU-Sim PTX: 12000000 instructions simulated : ctaid=(0,0,0) tid=(341,0,0)
GPGPU-Sim uArch: cycles simulated: 517000  inst.: 12059861 (ipc=23.3) sim_rate=74905 (inst/sec) elapsed = 0:0:02:41 / Tue Mar 22 12:42:22 2016
GPGPU-Sim PTX: 12100000 instructions simulated : ctaid=(4,0,0) tid=(341,0,0)
GPGPU-Sim uArch: cycles simulated: 520500  inst.: 12154837 (ipc=23.4) sim_rate=75029 (inst/sec) elapsed = 0:0:02:42 / Tue Mar 22 12:42:23 2016
GPGPU-Sim PTX: 12200000 instructions simulated : ctaid=(9,0,0) tid=(341,0,0)
GPGPU-Sim uArch: cycles simulated: 524000  inst.: 12249685 (ipc=23.4) sim_rate=75151 (inst/sec) elapsed = 0:0:02:43 / Tue Mar 22 12:42:24 2016
GPGPU-Sim PTX: 12300000 instructions simulated : ctaid=(8,0,0) tid=(341,0,0)
GPGPU-Sim uArch: cycles simulated: 527500  inst.: 12344501 (ipc=23.4) sim_rate=75271 (inst/sec) elapsed = 0:0:02:44 / Tue Mar 22 12:42:25 2016
GPGPU-Sim PTX: 12400000 instructions simulated : ctaid=(9,0,0) tid=(341,0,0)
GPGPU-Sim uArch: cycles simulated: 531500  inst.: 12452757 (ipc=23.4) sim_rate=75471 (inst/sec) elapsed = 0:0:02:45 / Tue Mar 22 12:42:26 2016
GPGPU-Sim PTX: 12500000 instructions simulated : ctaid=(14,0,0) tid=(373,0,0)
GPGPU-Sim uArch: cycles simulated: 535000  inst.: 12547381 (ipc=23.5) sim_rate=75586 (inst/sec) elapsed = 0:0:02:46 / Tue Mar 22 12:42:27 2016
GPGPU-Sim PTX: 12600000 instructions simulated : ctaid=(7,0,0) tid=(341,0,0)
GPGPU-Sim uArch: cycles simulated: 538500  inst.: 12642261 (ipc=23.5) sim_rate=75702 (inst/sec) elapsed = 0:0:02:47 / Tue Mar 22 12:42:28 2016
GPGPU-Sim PTX: 12700000 instructions simulated : ctaid=(0,0,0) tid=(373,0,0)
GPGPU-Sim uArch: cycles simulated: 542500  inst.: 12751125 (ipc=23.5) sim_rate=75899 (inst/sec) elapsed = 0:0:02:48 / Tue Mar 22 12:42:29 2016
GPGPU-Sim PTX: 12800000 instructions simulated : ctaid=(1,0,0) tid=(373,0,0)
GPGPU-Sim uArch: cycles simulated: 546000  inst.: 12845941 (ipc=23.5) sim_rate=76011 (inst/sec) elapsed = 0:0:02:49 / Tue Mar 22 12:42:30 2016
GPGPU-Sim PTX: 12900000 instructions simulated : ctaid=(3,0,0) tid=(373,0,0)
GPGPU-Sim uArch: cycles simulated: 549500  inst.: 12940789 (ipc=23.6) sim_rate=76122 (inst/sec) elapsed = 0:0:02:50 / Tue Mar 22 12:42:31 2016
GPGPU-Sim PTX: 13000000 instructions simulated : ctaid=(2,0,0) tid=(341,0,0)
GPGPU-Sim uArch: cycles simulated: 553000  inst.: 13035605 (ipc=23.6) sim_rate=76231 (inst/sec) elapsed = 0:0:02:51 / Tue Mar 22 12:42:32 2016
GPGPU-Sim PTX: 13100000 instructions simulated : ctaid=(12,0,0) tid=(373,0,0)
GPGPU-Sim uArch: cycles simulated: 557000  inst.: 13143541 (ipc=23.6) sim_rate=76415 (inst/sec) elapsed = 0:0:02:52 / Tue Mar 22 12:42:33 2016
GPGPU-Sim PTX: 13200000 instructions simulated : ctaid=(8,0,0) tid=(341,0,0)
GPGPU-Sim uArch: cycles simulated: 560500  inst.: 13238421 (ipc=23.6) sim_rate=76522 (inst/sec) elapsed = 0:0:02:53 / Tue Mar 22 12:42:34 2016
GPGPU-Sim PTX: 13300000 instructions simulated : ctaid=(7,0,0) tid=(373,0,0)
GPGPU-Sim uArch: cycles simulated: 564000  inst.: 13333397 (ipc=23.6) sim_rate=76628 (inst/sec) elapsed = 0:0:02:54 / Tue Mar 22 12:42:35 2016
GPGPU-Sim PTX: 13400000 instructions simulated : ctaid=(0,0,0) tid=(341,0,0)
GPGPU-Sim uArch: cycles simulated: 566500  inst.: 13400373 (ipc=23.7) sim_rate=76573 (inst/sec) elapsed = 0:0:02:55 / Tue Mar 22 12:42:36 2016
GPGPU-Sim PTX: 13500000 instructions simulated : ctaid=(13,0,0) tid=(373,0,0)
GPGPU-Sim uArch: cycles simulated: 570000  inst.: 13495125 (ipc=23.7) sim_rate=76676 (inst/sec) elapsed = 0:0:02:56 / Tue Mar 22 12:42:37 2016
GPGPU-Sim PTX: 13600000 instructions simulated : ctaid=(3,0,0) tid=(341,0,0)
GPGPU-Sim uArch: cycles simulated: 573500  inst.: 13589877 (ipc=23.7) sim_rate=76778 (inst/sec) elapsed = 0:0:02:57 / Tue Mar 22 12:42:38 2016
GPGPU-Sim uArch: cycles simulated: 577000  inst.: 13685766 (ipc=23.7) sim_rate=76886 (inst/sec) elapsed = 0:0:02:58 / Tue Mar 22 12:42:39 2016
GPGPU-Sim PTX: 13700000 instructions simulated : ctaid=(1,0,0) tid=(324,0,0)
GPGPU-Sim uArch: cycles simulated: 580000  inst.: 13774383 (ipc=23.7) sim_rate=76951 (inst/sec) elapsed = 0:0:02:59 / Tue Mar 22 12:42:40 2016
GPGPU-Sim PTX: 13800000 instructions simulated : ctaid=(1,0,0) tid=(408,0,0)
GPGPU-Sim uArch: cycles simulated: 584000  inst.: 13885071 (ipc=23.8) sim_rate=77139 (inst/sec) elapsed = 0:0:03:00 / Tue Mar 22 12:42:41 2016
GPGPU-Sim PTX: 13900000 instructions simulated : ctaid=(2,0,0) tid=(408,0,0)
GPGPU-Sim uArch: cycles simulated: 587500  inst.: 13979311 (ipc=23.8) sim_rate=77233 (inst/sec) elapsed = 0:0:03:01 / Tue Mar 22 12:42:42 2016
GPGPU-Sim PTX: 14000000 instructions simulated : ctaid=(10,0,0) tid=(440,0,0)
GPGPU-Sim PTX: 14100000 instructions simulated : ctaid=(2,0,0) tid=(440,0,0)
GPGPU-Sim uArch: cycles simulated: 591500  inst.: 14088079 (ipc=23.8) sim_rate=77407 (inst/sec) elapsed = 0:0:03:02 / Tue Mar 22 12:42:43 2016
GPGPU-Sim uArch: cycles simulated: 595000  inst.: 14183631 (ipc=23.8) sim_rate=77506 (inst/sec) elapsed = 0:0:03:03 / Tue Mar 22 12:42:44 2016
GPGPU-Sim PTX: 14200000 instructions simulated : ctaid=(13,0,0) tid=(440,0,0)
GPGPU-Sim PTX: 14300000 instructions simulated : ctaid=(3,0,0) tid=(440,0,0)
GPGPU-Sim uArch: cycles simulated: 599000  inst.: 14293903 (ipc=23.9) sim_rate=77684 (inst/sec) elapsed = 0:0:03:04 / Tue Mar 22 12:42:45 2016
GPGPU-Sim PTX: 14400000 instructions simulated : ctaid=(13,0,0) tid=(408,0,0)
GPGPU-Sim uArch: cycles simulated: 602500  inst.: 14388815 (ipc=23.9) sim_rate=77777 (inst/sec) elapsed = 0:0:03:05 / Tue Mar 22 12:42:46 2016
GPGPU-Sim PTX: 14500000 instructions simulated : ctaid=(5,0,0) tid=(440,0,0)
GPGPU-Sim uArch: cycles simulated: 606500  inst.: 14494735 (ipc=23.9) sim_rate=77928 (inst/sec) elapsed = 0:0:03:06 / Tue Mar 22 12:42:47 2016
GPGPU-Sim PTX: 14600000 instructions simulated : ctaid=(13,0,0) tid=(440,0,0)
GPGPU-Sim uArch: cycles simulated: 610000  inst.: 14589775 (ipc=23.9) sim_rate=78020 (inst/sec) elapsed = 0:0:03:07 / Tue Mar 22 12:42:48 2016
GPGPU-Sim PTX: 14700000 instructions simulated : ctaid=(14,0,0) tid=(408,0,0)
GPGPU-Sim uArch: cycles simulated: 614000  inst.: 14700079 (ipc=23.9) sim_rate=78191 (inst/sec) elapsed = 0:0:03:08 / Tue Mar 22 12:42:49 2016
GPGPU-Sim PTX: 14800000 instructions simulated : ctaid=(12,0,0) tid=(440,0,0)
GPGPU-Sim uArch: cycles simulated: 617500  inst.: 14795119 (ipc=24.0) sim_rate=78281 (inst/sec) elapsed = 0:0:03:09 / Tue Mar 22 12:42:50 2016
GPGPU-Sim PTX: 14900000 instructions simulated : ctaid=(4,0,0) tid=(408,0,0)
GPGPU-Sim uArch: cycles simulated: 621500  inst.: 14900815 (ipc=24.0) sim_rate=78425 (inst/sec) elapsed = 0:0:03:10 / Tue Mar 22 12:42:51 2016
GPGPU-Sim PTX: 15000000 instructions simulated : ctaid=(0,0,0) tid=(440,0,0)
GPGPU-Sim uArch: cycles simulated: 625000  inst.: 14995855 (ipc=24.0) sim_rate=78512 (inst/sec) elapsed = 0:0:03:11 / Tue Mar 22 12:42:52 2016
GPGPU-Sim PTX: 15100000 instructions simulated : ctaid=(4,0,0) tid=(440,0,0)
GPGPU-Sim uArch: cycles simulated: 629000  inst.: 15106159 (ipc=24.0) sim_rate=78677 (inst/sec) elapsed = 0:0:03:12 / Tue Mar 22 12:42:53 2016
GPGPU-Sim PTX: 15200000 instructions simulated : ctaid=(11,0,0) tid=(408,0,0)
GPGPU-Sim uArch: cycles simulated: 632500  inst.: 15201199 (ipc=24.0) sim_rate=78762 (inst/sec) elapsed = 0:0:03:13 / Tue Mar 22 12:42:54 2016
GPGPU-Sim PTX: 15300000 instructions simulated : ctaid=(13,0,0) tid=(408,0,0)
GPGPU-Sim uArch: cycles simulated: 636500  inst.: 15308367 (ipc=24.1) sim_rate=78909 (inst/sec) elapsed = 0:0:03:14 / Tue Mar 22 12:42:55 2016
GPGPU-Sim PTX: 15400000 instructions simulated : ctaid=(2,0,0) tid=(408,0,0)
GPGPU-Sim uArch: cycles simulated: 640000  inst.: 15403407 (ipc=24.1) sim_rate=78991 (inst/sec) elapsed = 0:0:03:15 / Tue Mar 22 12:42:56 2016
GPGPU-Sim PTX: 15500000 instructions simulated : ctaid=(2,0,0) tid=(440,0,0)
GPGPU-Sim uArch: cycles simulated: 644000  inst.: 15512239 (ipc=24.1) sim_rate=79144 (inst/sec) elapsed = 0:0:03:16 / Tue Mar 22 12:42:57 2016
GPGPU-Sim PTX: 15600000 instructions simulated : ctaid=(1,0,0) tid=(440,0,0)
GPGPU-Sim uArch: cycles simulated: 647500  inst.: 15607279 (ipc=24.1) sim_rate=79224 (inst/sec) elapsed = 0:0:03:17 / Tue Mar 22 12:42:58 2016
GPGPU-Sim PTX: 15700000 instructions simulated : ctaid=(6,0,0) tid=(408,0,0)
GPGPU-Sim uArch: cycles simulated: 651500  inst.: 15715471 (ipc=24.1) sim_rate=79371 (inst/sec) elapsed = 0:0:03:18 / Tue Mar 22 12:42:59 2016
GPGPU-Sim PTX: 15800000 instructions simulated : ctaid=(4,0,0) tid=(440,0,0)
GPGPU-Sim uArch: cycles simulated: 655000  inst.: 15810319 (ipc=24.1) sim_rate=79448 (inst/sec) elapsed = 0:0:03:19 / Tue Mar 22 12:43:00 2016
GPGPU-Sim PTX: 15900000 instructions simulated : ctaid=(14,0,0) tid=(408,0,0)
GPGPU-Sim uArch: cycles simulated: 659000  inst.: 15918447 (ipc=24.2) sim_rate=79592 (inst/sec) elapsed = 0:0:03:20 / Tue Mar 22 12:43:01 2016
GPGPU-Sim PTX: 16000000 instructions simulated : ctaid=(2,0,0) tid=(494,0,0)
GPGPU-Sim uArch: cycles simulated: 662000  inst.: 16004195 (ipc=24.2) sim_rate=79622 (inst/sec) elapsed = 0:0:03:21 / Tue Mar 22 12:43:02 2016
GPGPU-Sim PTX: 16100000 instructions simulated : ctaid=(9,0,0) tid=(485,0,0)
GPGPU-Sim uArch: cycles simulated: 666000  inst.: 16117461 (ipc=24.2) sim_rate=79789 (inst/sec) elapsed = 0:0:03:22 / Tue Mar 22 12:43:03 2016
GPGPU-Sim PTX: 16200000 instructions simulated : ctaid=(9,0,0) tid=(485,0,0)
GPGPU-Sim uArch: cycles simulated: 670000  inst.: 16226101 (ipc=24.2) sim_rate=79931 (inst/sec) elapsed = 0:0:03:23 / Tue Mar 22 12:43:04 2016
GPGPU-Sim PTX: 16300000 instructions simulated : ctaid=(10,0,0) tid=(453,0,0)
GPGPU-Sim uArch: cycles simulated: 674000  inst.: 16333845 (ipc=24.2) sim_rate=80067 (inst/sec) elapsed = 0:0:03:24 / Tue Mar 22 12:43:05 2016
GPGPU-Sim PTX: 16400000 instructions simulated : ctaid=(11,0,0) tid=(485,0,0)
GPGPU-Sim uArch: cycles simulated: 678000  inst.: 16443733 (ipc=24.3) sim_rate=80213 (inst/sec) elapsed = 0:0:03:25 / Tue Mar 22 12:43:06 2016
GPGPU-Sim PTX: 16500000 instructions simulated : ctaid=(3,0,0) tid=(453,0,0)
GPGPU-Sim uArch: cycles simulated: 682000  inst.: 16552277 (ipc=24.3) sim_rate=80350 (inst/sec) elapsed = 0:0:03:26 / Tue Mar 22 12:43:07 2016
GPGPU-Sim PTX: 16600000 instructions simulated : ctaid=(14,0,0) tid=(485,0,0)
GPGPU-Sim uArch: cycles simulated: 685500  inst.: 16647125 (ipc=24.3) sim_rate=80420 (inst/sec) elapsed = 0:0:03:27 / Tue Mar 22 12:43:08 2016
GPGPU-Sim PTX: 16700000 instructions simulated : ctaid=(9,0,0) tid=(485,0,0)
GPGPU-Sim uArch: cycles simulated: 688500  inst.: 16728949 (ipc=24.3) sim_rate=80427 (inst/sec) elapsed = 0:0:03:28 / Tue Mar 22 12:43:09 2016
GPGPU-Sim PTX: 16800000 instructions simulated : ctaid=(1,0,0) tid=(453,0,0)
GPGPU-Sim uArch: cycles simulated: 691500  inst.: 16809173 (ipc=24.3) sim_rate=80426 (inst/sec) elapsed = 0:0:03:29 / Tue Mar 22 12:43:10 2016
GPGPU-Sim PTX: 16900000 instructions simulated : ctaid=(5,0,0) tid=(485,0,0)
GPGPU-Sim uArch: cycles simulated: 695500  inst.: 16919221 (ipc=24.3) sim_rate=80567 (inst/sec) elapsed = 0:0:03:30 / Tue Mar 22 12:43:11 2016
GPGPU-Sim PTX: 17000000 instructions simulated : ctaid=(13,0,0) tid=(485,0,0)
GPGPU-Sim uArch: cycles simulated: 699000  inst.: 17014197 (ipc=24.3) sim_rate=80636 (inst/sec) elapsed = 0:0:03:31 / Tue Mar 22 12:43:12 2016
GPGPU-Sim PTX: 17100000 instructions simulated : ctaid=(2,0,0) tid=(453,0,0)
GPGPU-Sim uArch: cycles simulated: 703000  inst.: 17122261 (ipc=24.4) sim_rate=80765 (inst/sec) elapsed = 0:0:03:32 / Tue Mar 22 12:43:13 2016
GPGPU-Sim PTX: 17200000 instructions simulated : ctaid=(3,0,0) tid=(453,0,0)
GPGPU-Sim uArch: cycles simulated: 706500  inst.: 17217397 (ipc=24.4) sim_rate=80832 (inst/sec) elapsed = 0:0:03:33 / Tue Mar 22 12:43:14 2016
GPGPU-Sim PTX: 17300000 instructions simulated : ctaid=(14,0,0) tid=(453,0,0)
GPGPU-Sim uArch: cycles simulated: 710500  inst.: 17325429 (ipc=24.4) sim_rate=80959 (inst/sec) elapsed = 0:0:03:34 / Tue Mar 22 12:43:15 2016
GPGPU-Sim PTX: 17400000 instructions simulated : ctaid=(9,0,0) tid=(485,0,0)
GPGPU-Sim uArch: cycles simulated: 714500  inst.: 17434229 (ipc=24.4) sim_rate=81089 (inst/sec) elapsed = 0:0:03:35 / Tue Mar 22 12:43:16 2016
GPGPU-Sim PTX: 17500000 instructions simulated : ctaid=(4,0,0) tid=(453,0,0)
GPGPU-Sim uArch: cycles simulated: 718500  inst.: 17542773 (ipc=24.4) sim_rate=81216 (inst/sec) elapsed = 0:0:03:36 / Tue Mar 22 12:43:17 2016
GPGPU-Sim PTX: 17600000 instructions simulated : ctaid=(5,0,0) tid=(485,0,0)
GPGPU-Sim uArch: cycles simulated: 722000  inst.: 17637877 (ipc=24.4) sim_rate=81280 (inst/sec) elapsed = 0:0:03:37 / Tue Mar 22 12:43:18 2016
GPGPU-Sim PTX: 17700000 instructions simulated : ctaid=(13,0,0) tid=(453,0,0)
GPGPU-Sim uArch: cycles simulated: 726000  inst.: 17746229 (ipc=24.4) sim_rate=81404 (inst/sec) elapsed = 0:0:03:38 / Tue Mar 22 12:43:19 2016
GPGPU-Sim PTX: 17800000 instructions simulated : ctaid=(8,0,0) tid=(485,0,0)
GPGPU-Sim uArch: cycles simulated: 730000  inst.: 17855285 (ipc=24.5) sim_rate=81530 (inst/sec) elapsed = 0:0:03:39 / Tue Mar 22 12:43:20 2016
GPGPU-Sim PTX: 17900000 instructions simulated : ctaid=(0,0,0) tid=(453,0,0)
GPGPU-Sim uArch: cycles simulated: 734000  inst.: 17963605 (ipc=24.5) sim_rate=81652 (inst/sec) elapsed = 0:0:03:40 / Tue Mar 22 12:43:21 2016
GPGPU-Sim PTX: 18000000 instructions simulated : ctaid=(11,0,0) tid=(453,0,0)
GPGPU-Sim uArch: cycles simulated: 738000  inst.: 18073269 (ipc=24.5) sim_rate=81779 (inst/sec) elapsed = 0:0:03:41 / Tue Mar 22 12:43:22 2016
GPGPU-Sim PTX: 18100000 instructions simulated : ctaid=(5,0,0) tid=(485,0,0)
GPGPU-Sim uArch: cycles simulated: 742000  inst.: 18180469 (ipc=24.5) sim_rate=81894 (inst/sec) elapsed = 0:0:03:42 / Tue Mar 22 12:43:23 2016
GPGPU-Sim PTX: 18200000 instructions simulated : ctaid=(7,0,0) tid=(453,0,0)
GPGPU-Sim uArch: Shader 12 finished CTA #0 (743795,0), 2 CTAs running
GPGPU-Sim uArch: core: 12, cta: 0 initialized @(743796,0)
GPGPU-Sim uArch: Shader 0 finished CTA #0 (743844,0), 2 CTAs running
GPGPU-Sim uArch: core:  0, cta: 0 initialized @(743845,0)
GPGPU-Sim uArch: Shader 3 finished CTA #0 (743957,0), 2 CTAs running
GPGPU-Sim uArch: core:  3, cta: 0 initialized @(743958,0)
GPGPU-Sim uArch: Shader 9 finished CTA #0 (743974,0), 2 CTAs running
GPGPU-Sim uArch: core:  9, cta: 0 initialized @(743975,0)
GPGPU-Sim uArch: Shader 2 finished CTA #0 (744497,0), 2 CTAs running
GPGPU-Sim uArch: core:  2, cta: 0 initialized @(744498,0)
GPGPU-Sim uArch: Shader 11 finished CTA #0 (744769,0), 2 CTAs running
GPGPU-Sim uArch: core: 11, cta: 0 initialized @(744770,0)
GPGPU-Sim uArch: Shader 8 finished CTA #0 (744781,0), 2 CTAs running
GPGPU-Sim uArch: core:  8, cta: 0 initialized @(744782,0)
GPGPU-Sim uArch: Shader 5 finished CTA #0 (744811,0), 2 CTAs running
GPGPU-Sim uArch: core:  5, cta: 0 initialized @(744812,0)
GPGPU-Sim uArch: Shader 7 finished CTA #0 (744835,0), 2 CTAs running
GPGPU-Sim uArch: core:  7, cta: 0 initialized @(744836,0)
GPGPU-Sim uArch: Shader 1 finished CTA #0 (744874,0), 2 CTAs running
GPGPU-Sim uArch: core:  1, cta: 0 initialized @(744875,0)
GPGPU-Sim uArch: Shader 6 finished CTA #0 (744896,0), 2 CTAs running
GPGPU-Sim uArch: core:  6, cta: 0 initialized @(744897,0)
GPGPU-Sim uArch: Shader 4 finished CTA #0 (744910,0), 2 CTAs running
GPGPU-Sim uArch: core:  4, cta: 0 initialized @(744911,0)
GPGPU-Sim uArch: Shader 14 finished CTA #0 (744923,0), 2 CTAs running
GPGPU-Sim uArch: core: 14, cta: 0 initialized @(744924,0)
GPGPU-Sim uArch: Shader 10 finished CTA #0 (744978,0), 2 CTAs running
GPGPU-Sim uArch: core: 10, cta: 0 initialized @(744979,0)
GPGPU-Sim uArch: cycles simulated: 745000  inst.: 18260954 (ipc=24.5) sim_rate=81887 (inst/sec) elapsed = 0:0:03:43 / Tue Mar 22 12:43:24 2016
GPGPU-Sim uArch: Shader 13 finished CTA #0 (745066,0), 2 CTAs running
GPGPU-Sim uArch: core: 13, cta: 0 initialized @(745067,0)
GPGPU-Sim uArch: cycles simulated: 749000  inst.: 18274850 (ipc=24.4) sim_rate=81584 (inst/sec) elapsed = 0:0:03:44 / Tue Mar 22 12:43:25 2016
GPGPU-Sim uArch: cycles simulated: 753000  inst.: 18276242 (ipc=24.3) sim_rate=81227 (inst/sec) elapsed = 0:0:03:45 / Tue Mar 22 12:43:26 2016
GPGPU-Sim uArch: cycles simulated: 757000  inst.: 18277649 (ipc=24.1) sim_rate=80874 (inst/sec) elapsed = 0:0:03:46 / Tue Mar 22 12:43:27 2016
GPGPU-Sim uArch: cycles simulated: 761000  inst.: 18279047 (ipc=24.0) sim_rate=80524 (inst/sec) elapsed = 0:0:03:47 / Tue Mar 22 12:43:28 2016
GPGPU-Sim uArch: cycles simulated: 764500  inst.: 18280205 (ipc=23.9) sim_rate=80176 (inst/sec) elapsed = 0:0:03:48 / Tue Mar 22 12:43:29 2016
GPGPU-Sim uArch: cycles simulated: 768500  inst.: 18281570 (ipc=23.8) sim_rate=79832 (inst/sec) elapsed = 0:0:03:49 / Tue Mar 22 12:43:30 2016
GPGPU-Sim uArch: cycles simulated: 772500  inst.: 18282942 (ipc=23.7) sim_rate=79491 (inst/sec) elapsed = 0:0:03:50 / Tue Mar 22 12:43:31 2016
GPGPU-Sim PTX: 18300000 instructions simulated : ctaid=(28,0,0) tid=(0,0,0)
GPGPU-Sim uArch: cycles simulated: 776500  inst.: 18284345 (ipc=23.5) sim_rate=79153 (inst/sec) elapsed = 0:0:03:51 / Tue Mar 22 12:43:32 2016
GPGPU-Sim uArch: cycles simulated: 780500  inst.: 18285750 (ipc=23.4) sim_rate=78817 (inst/sec) elapsed = 0:0:03:52 / Tue Mar 22 12:43:33 2016
GPGPU-Sim uArch: cycles simulated: 784500  inst.: 18287135 (ipc=23.3) sim_rate=78485 (inst/sec) elapsed = 0:0:03:53 / Tue Mar 22 12:43:34 2016
GPGPU-Sim uArch: cycles simulated: 788500  inst.: 18288500 (ipc=23.2) sim_rate=78155 (inst/sec) elapsed = 0:0:03:54 / Tue Mar 22 12:43:35 2016
GPGPU-Sim uArch: cycles simulated: 792500  inst.: 18289865 (ipc=23.1) sim_rate=77829 (inst/sec) elapsed = 0:0:03:55 / Tue Mar 22 12:43:36 2016
GPGPU-Sim uArch: cycles simulated: 796500  inst.: 18291230 (ipc=23.0) sim_rate=77505 (inst/sec) elapsed = 0:0:03:56 / Tue Mar 22 12:43:37 2016
GPGPU-Sim uArch: cycles simulated: 800500  inst.: 18292595 (ipc=22.9) sim_rate=77183 (inst/sec) elapsed = 0:0:03:57 / Tue Mar 22 12:43:38 2016
GPGPU-Sim uArch: cycles simulated: 804500  inst.: 18293960 (ipc=22.7) sim_rate=76865 (inst/sec) elapsed = 0:0:03:58 / Tue Mar 22 12:43:39 2016
GPGPU-Sim uArch: cycles simulated: 808500  inst.: 18295340 (ipc=22.6) sim_rate=76549 (inst/sec) elapsed = 0:0:03:59 / Tue Mar 22 12:43:40 2016
GPGPU-Sim uArch: cycles simulated: 812500  inst.: 18296746 (ipc=22.5) sim_rate=76236 (inst/sec) elapsed = 0:0:04:00 / Tue Mar 22 12:43:41 2016
GPGPU-Sim uArch: cycles simulated: 816500  inst.: 18298151 (ipc=22.4) sim_rate=75925 (inst/sec) elapsed = 0:0:04:01 / Tue Mar 22 12:43:42 2016
GPGPU-Sim uArch: cycles simulated: 820500  inst.: 18299525 (ipc=22.3) sim_rate=75617 (inst/sec) elapsed = 0:0:04:02 / Tue Mar 22 12:43:43 2016
GPGPU-Sim PTX: 18400000 instructions simulated : ctaid=(20,0,0) tid=(29,0,0)
GPGPU-Sim uArch: cycles simulated: 824000  inst.: 18394566 (ipc=22.3) sim_rate=75697 (inst/sec) elapsed = 0:0:04:03 / Tue Mar 22 12:43:44 2016
GPGPU-Sim uArch: cycles simulated: 827000  inst.: 18475110 (ipc=22.3) sim_rate=75717 (inst/sec) elapsed = 0:0:04:04 / Tue Mar 22 12:43:45 2016
GPGPU-Sim PTX: 18500000 instructions simulated : ctaid=(21,0,0) tid=(29,0,0)
GPGPU-Sim uArch: cycles simulated: 830500  inst.: 18568934 (ipc=22.4) sim_rate=75791 (inst/sec) elapsed = 0:0:04:05 / Tue Mar 22 12:43:46 2016
GPGPU-Sim PTX: 18600000 instructions simulated : ctaid=(17,0,0) tid=(61,0,0)
GPGPU-Sim uArch: cycles simulated: 833500  inst.: 18650438 (ipc=22.4) sim_rate=75814 (inst/sec) elapsed = 0:0:04:06 / Tue Mar 22 12:43:47 2016
GPGPU-Sim PTX: 18700000 instructions simulated : ctaid=(21,0,0) tid=(29,0,0)
GPGPU-Sim uArch: cycles simulated: 837000  inst.: 18747014 (ipc=22.4) sim_rate=75898 (inst/sec) elapsed = 0:0:04:07 / Tue Mar 22 12:43:48 2016
GPGPU-Sim PTX: 18800000 instructions simulated : ctaid=(23,0,0) tid=(61,0,0)
GPGPU-Sim uArch: cycles simulated: 840000  inst.: 18828166 (ipc=22.4) sim_rate=75920 (inst/sec) elapsed = 0:0:04:08 / Tue Mar 22 12:43:49 2016
GPGPU-Sim PTX: 18900000 instructions simulated : ctaid=(24,0,0) tid=(29,0,0)
GPGPU-Sim uArch: cycles simulated: 843000  inst.: 18910086 (ipc=22.4) sim_rate=75944 (inst/sec) elapsed = 0:0:04:09 / Tue Mar 22 12:43:50 2016
GPGPU-Sim PTX: 19000000 instructions simulated : ctaid=(17,0,0) tid=(61,0,0)
GPGPU-Sim uArch: cycles simulated: 846500  inst.: 19004934 (ipc=22.5) sim_rate=76019 (inst/sec) elapsed = 0:0:04:10 / Tue Mar 22 12:43:51 2016
GPGPU-Sim PTX: 19100000 instructions simulated : ctaid=(27,0,0) tid=(61,0,0)
GPGPU-Sim uArch: cycles simulated: 849500  inst.: 19085894 (ipc=22.5) sim_rate=76039 (inst/sec) elapsed = 0:0:04:11 / Tue Mar 22 12:43:52 2016
GPGPU-Sim uArch: cycles simulated: 853000  inst.: 19180646 (ipc=22.5) sim_rate=76113 (inst/sec) elapsed = 0:0:04:12 / Tue Mar 22 12:43:53 2016
GPGPU-Sim PTX: 19200000 instructions simulated : ctaid=(29,0,0) tid=(29,0,0)
GPGPU-Sim uArch: cycles simulated: 856000  inst.: 19261254 (ipc=22.5) sim_rate=76131 (inst/sec) elapsed = 0:0:04:13 / Tue Mar 22 12:43:54 2016
GPGPU-Sim PTX: 19300000 instructions simulated : ctaid=(16,0,0) tid=(29,0,0)
GPGPU-Sim uArch: cycles simulated: 859500  inst.: 19356006 (ipc=22.5) sim_rate=76204 (inst/sec) elapsed = 0:0:04:14 / Tue Mar 22 12:43:55 2016
GPGPU-Sim PTX: 19400000 instructions simulated : ctaid=(15,0,0) tid=(61,0,0)
GPGPU-Sim uArch: cycles simulated: 862500  inst.: 19438886 (ipc=22.5) sim_rate=76230 (inst/sec) elapsed = 0:0:04:15 / Tue Mar 22 12:43:56 2016
GPGPU-Sim PTX: 19500000 instructions simulated : ctaid=(19,0,0) tid=(61,0,0)
GPGPU-Sim uArch: cycles simulated: 866000  inst.: 19533830 (ipc=22.6) sim_rate=76304 (inst/sec) elapsed = 0:0:04:16 / Tue Mar 22 12:43:57 2016
GPGPU-Sim PTX: 19600000 instructions simulated : ctaid=(24,0,0) tid=(29,0,0)
GPGPU-Sim uArch: cycles simulated: 869000  inst.: 19614662 (ipc=22.6) sim_rate=76321 (inst/sec) elapsed = 0:0:04:17 / Tue Mar 22 12:43:58 2016
GPGPU-Sim PTX: 19700000 instructions simulated : ctaid=(17,0,0) tid=(29,0,0)
GPGPU-Sim uArch: cycles simulated: 872500  inst.: 19709670 (ipc=22.6) sim_rate=76394 (inst/sec) elapsed = 0:0:04:18 / Tue Mar 22 12:43:59 2016
GPGPU-Sim PTX: 19800000 instructions simulated : ctaid=(27,0,0) tid=(61,0,0)
GPGPU-Sim uArch: cycles simulated: 875500  inst.: 19790886 (ipc=22.6) sim_rate=76412 (inst/sec) elapsed = 0:0:04:19 / Tue Mar 22 12:44:00 2016
GPGPU-Sim PTX: 19900000 instructions simulated : ctaid=(26,0,0) tid=(29,0,0)
GPGPU-Sim uArch: cycles simulated: 879000  inst.: 19885670 (ipc=22.6) sim_rate=76483 (inst/sec) elapsed = 0:0:04:20 / Tue Mar 22 12:44:01 2016
GPGPU-Sim uArch: cycles simulated: 882000  inst.: 19966566 (ipc=22.6) sim_rate=76500 (inst/sec) elapsed = 0:0:04:21 / Tue Mar 22 12:44:02 2016
GPGPU-Sim PTX: 20000000 instructions simulated : ctaid=(19,0,0) tid=(61,0,0)
GPGPU-Sim uArch: cycles simulated: 885500  inst.: 20061414 (ipc=22.7) sim_rate=76570 (inst/sec) elapsed = 0:0:04:22 / Tue Mar 22 12:44:03 2016
GPGPU-Sim PTX: 20100000 instructions simulated : ctaid=(18,0,0) tid=(61,0,0)
GPGPU-Sim uArch: cycles simulated: 888500  inst.: 20141990 (ipc=22.7) sim_rate=76585 (inst/sec) elapsed = 0:0:04:23 / Tue Mar 22 12:44:04 2016
GPGPU-Sim PTX: 20200000 instructions simulated : ctaid=(20,0,0) tid=(61,0,0)
GPGPU-Sim uArch: cycles simulated: 892000  inst.: 20236902 (ipc=22.7) sim_rate=76654 (inst/sec) elapsed = 0:0:04:24 / Tue Mar 22 12:44:05 2016
GPGPU-Sim PTX: 20300000 instructions simulated : ctaid=(25,0,0) tid=(61,0,0)
GPGPU-Sim uArch: cycles simulated: 895000  inst.: 20319878 (ipc=22.7) sim_rate=76678 (inst/sec) elapsed = 0:0:04:25 / Tue Mar 22 12:44:06 2016
GPGPU-Sim PTX: 20400000 instructions simulated : ctaid=(17,0,0) tid=(29,0,0)
GPGPU-Sim uArch: cycles simulated: 898000  inst.: 20400870 (ipc=22.7) sim_rate=76695 (inst/sec) elapsed = 0:0:04:26 / Tue Mar 22 12:44:07 2016
GPGPU-Sim PTX: 20500000 instructions simulated : ctaid=(28,0,0) tid=(61,0,0)
GPGPU-Sim uArch: cycles simulated: 901500  inst.: 20495846 (ipc=22.7) sim_rate=76763 (inst/sec) elapsed = 0:0:04:27 / Tue Mar 22 12:44:08 2016
GPGPU-Sim uArch: cycles simulated: 904500  inst.: 20578938 (ipc=22.8) sim_rate=76787 (inst/sec) elapsed = 0:0:04:28 / Tue Mar 22 12:44:09 2016
GPGPU-Sim PTX: 20600000 instructions simulated : ctaid=(18,0,0) tid=(32,0,0)
GPGPU-Sim uArch: cycles simulated: 907000  inst.: 20652124 (ipc=22.8) sim_rate=76773 (inst/sec) elapsed = 0:0:04:29 / Tue Mar 22 12:44:10 2016
GPGPU-Sim PTX: 20700000 instructions simulated : ctaid=(15,0,0) tid=(66,0,0)
GPGPU-Sim uArch: cycles simulated: 910000  inst.: 20735612 (ipc=22.8) sim_rate=76798 (inst/sec) elapsed = 0:0:04:30 / Tue Mar 22 12:44:11 2016
GPGPU-Sim PTX: 20800000 instructions simulated : ctaid=(25,0,0) tid=(66,0,0)
GPGPU-Sim uArch: cycles simulated: 912500  inst.: 20803004 (ipc=22.8) sim_rate=76763 (inst/sec) elapsed = 0:0:04:31 / Tue Mar 22 12:44:12 2016
GPGPU-Sim PTX: 20900000 instructions simulated : ctaid=(17,0,0) tid=(66,0,0)
GPGPU-Sim uArch: cycles simulated: 915500  inst.: 20885020 (ipc=22.8) sim_rate=76783 (inst/sec) elapsed = 0:0:04:32 / Tue Mar 22 12:44:13 2016
GPGPU-Sim uArch: cycles simulated: 918500  inst.: 20968124 (ipc=22.8) sim_rate=76806 (inst/sec) elapsed = 0:0:04:33 / Tue Mar 22 12:44:14 2016
GPGPU-Sim PTX: 21000000 instructions simulated : ctaid=(16,0,0) tid=(98,0,0)
GPGPU-Sim uArch: cycles simulated: 921000  inst.: 21035036 (ipc=22.8) sim_rate=76770 (inst/sec) elapsed = 0:0:04:34 / Tue Mar 22 12:44:15 2016
GPGPU-Sim PTX: 21100000 instructions simulated : ctaid=(18,0,0) tid=(66,0,0)
GPGPU-Sim uArch: cycles simulated: 924000  inst.: 21117244 (ipc=22.9) sim_rate=76789 (inst/sec) elapsed = 0:0:04:35 / Tue Mar 22 12:44:16 2016
GPGPU-Sim PTX: 21200000 instructions simulated : ctaid=(28,0,0) tid=(98,0,0)
[...]
traffic_breakdown_coretomem[GLOBAL_ACC_W] = 4514512 {40:10327,72:1856,136:29175,}
traffic_breakdown_coretomem[INST_ACC_R] = 840 {8:105,}
traffic_breakdown_memtocore[CONST_ACC_R] = 1080 {72:15,}
traffic_breakdown_memtocore[GLOBAL_ACC_R] = 161295456 {136:1185996,}
traffic_breakdown_memtocore[GLOBAL_ACC_W] = 330864 {8:41358,}
traffic_breakdown_memtocore[INST_ACC_R] = 14280 {136:105,}
maxmrqlatency = 242 
maxdqlatency = 0 
maxmflatency = 644 
averagemflatency = 276 
max_icnt2mem_latency = 199 
max_icnt2sh_latency = 13335883 
mrq_lat_table:313163 	23776 	118981 	481119 	196083 	12271 	1767 	64 	0 	0 	0 	0 	0 	0 	0 	0 	0 	0 	0 	0 	0 	0 	0 	0 	0 	0 	0 	0 	0 	0 	0 	0 	
dq_lat_table:0 	0 	0 	0 	0 	0 	0 	0 	0 	0 	0 	0 	0 	0 	0 	0 	0 	0 	0 	0 	0 	0 	0 	0 	0 	0 	0 	0 	0 	0 	0 	0 	
mf_lat_table:0 	0 	0 	0 	0 	0 	0 	52350 	1174712 	307 	0 	0 	0 	0 	0 	0 	0 	0 	0 	0 	0 	0 	0 	0 	0 	0 	0 	0 	0 	0 	0 	0 	
icnt2mem_lat_table:0 	0 	0 	1156750 	39333 	19711 	11506 	174 	0 	0 	0 	0 	0 	0 	0 	0 	0 	0 	0 	0 	0 	0 	0 	0 	
icnt2sh_lat_table:0 	0 	0 	489050 	660952 	27311 	8649 	49 	0 	0 	0 	0 	0 	0 	0 	0 	0 	905 	1367 	2289 	5417 	10067 	13623 	7690 	
mf_lat_pw_table:0 	0 	0 	0 	0 	0 	0 	316 	26352 	0 	0 	0 	0 	0 	0 	0 	0 	0 	0 	0 	0 	0 	0 	0 	0 	0 	0 	0 	0 	0 	0 	0 	
maximum concurrent accesses to same row:
dram[0]:        18        20        32        24        32        32        32        32        32        32        26        24        32        24        24        36 
dram[1]:        20        28        36        22        32        32        32        32        20        32        24        28        32        22        30        35 
dram[2]:        22        21        32        36        32        32        32        32        24        32        24        32        32        28        30        26 
dram[3]:        22        22        32        36        36        32        32        32        28        28        20        28        32        26        34        28 
dram[4]:        18        20        34        36        32        32        32        32        32        24        24        24        32        24        32        36 
dram[5]:        20        26        34        26        32        32        32        32        32        20        26        24        28        28        34        36 
maximum service time to same row:
dram[0]:    406124    321495   1399028   1314716    816929    899959    658612    739644    740411    823891   1067416    983093   1398229   1314119    657665    658231 
dram[1]:    332600    332439   1066997    662781    740587    900019    739628    739647    740438    906526    983085    739617   1479574   1231404    739264    656578 
dram[2]:    318588    409092   1480033   1068498    900081    822525    739632    739611    823384    658483    983087    658357   1479575   1148470    656611    657619 
dram[3]:    332041    331969   1480034   1066739    900063    822525    580205    739611    823348    741463    739678   1066094   1479578   1066265    656628    739289 
dram[4]:    406094    326211   1399042    984212    816955    899731    739640    739610    740435    740398    739616    900400   1398259    983492    741104    656644 
dram[5]:    400228    331081   1397352    901613    740619    899759    739641    739610    741292    740335   1066066    900400   1396822    663095    739247    656676 
average row accesses per activate:
dram[0]:  6.657489  5.550299  4.288221  5.287045  5.699183  6.685457  4.908416  4.837399  6.355080  6.706148  4.868173  5.010989  5.736434  5.428702  4.751204  5.220459 
dram[1]:  6.271739  5.358407  5.416515  4.191026  6.321961  6.674170  5.053079  5.185185  6.289947  6.122554  4.781452  4.660378  5.446182  5.426215  4.519084  5.172565 
dram[2]:  6.257246  6.342782  5.390244  5.256399  5.845244  6.448669  5.072464  4.556675  5.770874  6.009601  4.793048  4.424039  5.222761  5.718147  5.162963  4.583365 
dram[3]:  5.806421  5.678538  5.385205  4.808064  6.449157  5.982880  3.967732  5.850541  6.513973  5.897372  4.841976  4.772142  5.670498  5.583883  5.225066  4.401487 
dram[4]:  4.862777  5.734219  5.461961  5.338710  6.855491  6.059244  5.297418  5.896928  6.046795  6.133127  5.320467  4.515810  4.307929  5.695045  5.083727  4.303889 
dram[5]:  5.523484  6.262532  5.335570  4.971643  6.359249  5.617424  4.850916  5.840118  5.645774  6.245927  4.945811  4.816741  5.384265  4.150477  5.016949  4.529457 
average row locality = 1147224/214993 = 5.336099
number of total memory accesses made:
dram[0]:         0         0         0         0         0         0         0         0         0         0         0         0         0         0         0         0 
dram[1]:         0         0         0         0         0         0         0         0         0         0         0         0         0         0         0         0 
dram[2]:         0         0         0         0         0         0         0         0         0         0         0         0         0         0         0         0 
dram[3]:         0         0         0         0         0         0         0         0         0         0         0         0         0         0         0         0 
dram[4]:         0         0         0         0         0         0         0         0         0         0         0         0         0         0         0         0 
dram[5]:         0         0         0         0         0         0         0         0         0         0         0         0         0         0         0         0 
total accesses: 0
min_bank_accesses = 0!
min_chip_accesses = 0!
number of total read accesses:
dram[0]:     11619     11616     12350     11572     11562     11562     11584     11584     11584     11584     11564     11562     11552     11552     11552     11552 
dram[1]:     11634     11630     11580     12352     11562     11562     11584     11584     11584     11584     11564     11562     11552     11552     11552     11552 
dram[2]:     11618     11616     11576     11572     11562     11572     11584     12349     11584     11593     11564     11562     11552     11560     11561     11560 
dram[3]:     11633     11632     11580     11576     11562     11582     12349     11584     11584     11593     11564     11562     11552     11561     11552     11552 
dram[4]:     11616     11616     11572     11572     11562     11564     11584     11584     11584     11584     11562     11562     12317     11552     11552     11552 
dram[5]:     11630     11632     11578     11576     11562     11564     11593     11592     11584     11584     11571     11562     11552     12317     11552     11552 
total reads: 1115880
bank skew: 12352/11552 = 1.07
chip skew: 186018/185935 = 1.00
number of total write accesses:
dram[0]:       471       467       356       345       298       298       314       316       300       306       290       294       288       288       288       288 
dram[1]:       483       480       358       351       298       298       316       316       304       306       294       294       288       288       288       288 
dram[2]:       471       467       358       339       298       300       316       314       304       300       294       290       288       288       288       288 
dram[3]:       485       486       359       348       298       300       316       316       304       302       294       292       288       288       288       288 
dram[4]:       468       466       346       344       298       300       314       316       304       302       292       292       288       288       288       288 
dram[5]:       483       486       347       346       298       300       316       316       306       302       294       292       288       288       288       288 
total reads: 31344
bank skew: 486/288 = 1.69
chip skew: 5252/5194 = 1.01
average mf latency per bank:
dram[0]:        279       277       500       280       280       279       282       281       280       279       280       280       279       279       281       280
dram[1]:        277       276       279       499       279       277       281       280       280       279       280       279       279       278       280       279
dram[2]:        280       279       281       281       281       283       283       502       281       284       282       283       281       283       284       284
dram[3]:        277       279       279       280       280       286       501       282       280       283       280       281       279       282       280       282
dram[4]:        279       279       281       280       281       281       283       282       281       281       281       281       500       280       281       283
dram[5]:        278       277       280       279       280       280       284       283       280       279       283       280       281       499       282       281
maximum mf latency per bank:
dram[0]:        480       526       632       529       552       510       551       560       514       530       550       566       585       574       521       603
dram[1]:        511       507       498       496       506       498       524       531       520       477       489       485       502       520       526       527
dram[2]:        550       560       544       497       527       529       537       520       520       496       539       516       565       534       601       530
dram[3]:        590       529       566       644       550       516       551       528       530       496       548       553       561       561       611       545
dram[4]:        504       537       510       640       504       572       523       566       500       518       513       547       533       569       559       552
dram[5]:        550       523       524       582       506       534       564       562       522       506       570       523       578       535       567       513

Number of Memory Banks Accessed per Memory Operation per Warp (from 0):
0	0	0	0	0	0	0	0	0	0	0	0	0	0	0	0	0	0	0	0	0	0	0	0	0	0	0	0	0	0	0	0	0	0	0	0	0	0	0	0	0	0	0	0	0	0	0	0	0	0	0	0	0	0	0	0	0	0	0	0	0	0	0	0	0	0	0	0	0	0	0	0	0	0	0	0	0	0	0	0	0	0	0	0	0	0	0	0	0	0	0	0	0	0	0	0	
Average # of Memory Banks Accessed per Memory Operation per Warp=-nan

position of mrq chosen
0	0	0	0	0	0	0	0	0	0	0	0	0	0	0	0	

average position of mrq chosen = -nan
Memory Partition 0: 
Cache L2_bank_000:
MSHR contents

Cache L2_bank_001:
MSHR contents

In Dram Latency Queue (total = 0): 
DRAM[0]: 16 bks, busW=4 BL=8 CL=12, tRRD=2 tCCD=6, tRCD=12 tRAS=28 tRP=12 tRC=40
n_cmd=17603365 n_nop=17150586 n_act=35398 n_pre=35382 n_req=191158 n_rd=371902 n_write=10097 bw_util=0.0434
n_activity=2039881 dram_eff=0.3745
bk0: 23238a 17481772i bk1: 23232a 17475229i bk2: 24700a 17454204i bk3: 23144a 17471839i bk4: 23124a 17478998i bk5: 23124a 17486651i bk6: 23168a 17469109i bk7: 23168a 17465321i bk8: 23168a 17482159i bk9: 23168a 17486898i bk10: 23128a 17469272i bk11: 23124a 17470328i bk12: 23104a 17476131i bk13: 23104a 17473698i bk14: 23104a 17463532i bk15: 23104a 17468648i 
dram_util_bins: 0 0 0 0 0 0 0 0 0 0
dram_eff_bins: 0 0 0 0 0 0 0 0 0 0
mrqq: max=16 avg=0.127257
Memory Partition 1: 
Cache L2_bank_002:
MSHR contents

Cache L2_bank_003:
MSHR contents

In Dram Latency Queue (total = 0): 
DRAM[1]: 16 bks, busW=4 BL=8 CL=12, tRRD=2 tCCD=6, tRCD=12 tRAS=28 tRP=12 tRC=40
n_cmd=17603365 n_nop=17149582 n_act=35851 n_pre=35835 n_req=191240 n_rd=371980 n_write=10117 bw_util=0.04341
n_activity=2067293 dram_eff=0.3697
bk0: 23268a 17478956i bk1: 23260a 17472896i bk2: 23160a 17475719i bk3: 24704a 17451477i bk4: 23124a 17484783i bk5: 23124a 17483965i bk6: 23168a 17471159i bk7: 23168a 17467721i bk8: 23168a 17482511i bk9: 23168a 17480629i bk10: 23128a 17469975i bk11: 23124a 17466450i bk12: 23104a 17475806i bk13: 23104a 17473337i bk14: 23104a 17463770i bk15: 23104a 17466651i 
dram_util_bins: 0 0 0 0 0 0 0 0 0 0
dram_eff_bins: 0 0 0 0 0 0 0 0 0 0
mrqq: max=16 avg=0.124717
Memory Partition 2: 
Cache L2_bank_004:
MSHR contents

Cache L2_bank_005:
MSHR contents

In Dram Latency Queue (total = 0): 
DRAM[2]: 16 bks, busW=4 BL=8 CL=12, tRRD=2 tCCD=6, tRCD=12 tRAS=28 tRP=12 tRC=40
n_cmd=17603365 n_nop=17149873 n_act=35723 n_pre=35707 n_req=191188 n_rd=371970 n_write=10092 bw_util=0.04341
n_activity=2048828 dram_eff=0.373
bk0: 23236a 17477961i bk1: 23232a 17481072i bk2: 23152a 17474734i bk3: 23144a 17473830i bk4: 23124a 17478847i bk5: 23144a 17481332i bk6: 23168a 17469860i bk7: 24698a 17456801i bk8: 23168a 17478963i bk9: 23186a 17480971i bk10: 23128a 17468495i bk11: 23124a 17462487i bk12: 23104a 17472025i bk13: 23120a 17476113i bk14: 23122a 17469308i bk15: 23120a 17462465i 
dram_util_bins: 0 0 0 0 0 0 0 0 0 0
dram_eff_bins: 0 0 0 0 0 0 0 0 0 0
mrqq: max=16 avg=0.127713
Memory Partition 3: 
Cache L2_bank_006:
MSHR contents

Cache L2_bank_007:
MSHR contents

In Dram Latency Queue (total = 0): 
DRAM[3]: 16 bks, busW=4 BL=8 CL=12, tRRD=2 tCCD=6, tRCD=12 tRAS=28 tRP=12 tRC=40
n_cmd=17603365 n_nop=17149408 n_act=35910 n_pre=35894 n_req=191270 n_rd=372036 n_write=10117 bw_util=0.04342
n_activity=2070420 dram_eff=0.3692
bk0: 23266a 17473778i bk1: 23264a 17474969i bk2: 23160a 17476183i bk3: 23152a 17469637i bk4: 23124a 17482322i bk5: 23164a 17479395i bk6: 24698a 17444397i bk7: 23168a 17473261i bk8: 23168a 17485272i bk9: 23186a 17480091i bk10: 23128a 17469535i bk11: 23124a 17466419i bk12: 23104a 17474754i bk13: 23122a 17473748i bk14: 23104a 17473279i bk15: 23104a 17458603i 
dram_util_bins: 0 0 0 0 0 0 0 0 0 0
dram_eff_bins: 0 0 0 0 0 0 0 0 0 0
mrqq: max=16 avg=0.125469
Memory Partition 4: 
Cache L2_bank_008:
MSHR contents

Cache L2_bank_009:
MSHR contents

In Dram Latency Queue (total = 0): 
DRAM[4]: 16 bks, busW=4 BL=8 CL=12, tRRD=2 tCCD=6, tRCD=12 tRAS=28 tRP=12 tRC=40
n_cmd=17603365 n_nop=17149828 n_act=35800 n_pre=35784 n_req=191129 n_rd=371870 n_write=10083 bw_util=0.0434
n_activity=2057762 dram_eff=0.3712
bk0: 23232a 17465530i bk1: 23232a 17474982i bk2: 23144a 17474847i bk3: 23144a 17475126i bk4: 23124a 17483945i bk5: 23128a 17480777i bk6: 23168a 17471357i bk7: 23168a 17477003i bk8: 23168a 17481993i bk9: 23168a 17482834i bk10: 23124a 17473335i bk11: 23124a 17461464i bk12: 24634a 17452329i bk13: 23104a 17475288i bk14: 23104a 17471090i bk15: 23104a 17456131i 
dram_util_bins: 0 0 0 0 0 0 0 0 0 0
dram_eff_bins: 0 0 0 0 0 0 0 0 0 0
mrqq: max=16 avg=0.12711
Memory Partition 5: 
Cache L2_bank_010:
MSHR contents

Cache L2_bank_011:
MSHR contents

In Dram Latency Queue (total = 0): 
DRAM[5]: 16 bks, busW=4 BL=8 CL=12, tRRD=2 tCCD=6, tRCD=12 tRAS=28 tRP=12 tRC=40
n_cmd=17603365 n_nop=17148658 n_act=36311 n_pre=36295 n_req=191239 n_rd=372002 n_write=10099 bw_util=0.04341
n_activity=2073943 dram_eff=0.3685
bk0: 23260a 17472317i bk1: 23264a 17479053i bk2: 23156a 17473859i bk3: 23152a 17470078i bk4: 23124a 17483534i bk5: 23128a 17476538i bk6: 23186a 17466514i bk7: 23184a 17473416i bk8: 23168a 17479063i bk9: 23168a 17483350i bk10: 23142a 17470901i bk11: 23124a 17466573i bk12: 23104a 17473654i bk13: 24634a 17452301i bk14: 23104a 17468072i bk15: 23104a 17459572i 
dram_util_bins: 0 0 0 0 0 0 0 0 0 0
dram_eff_bins: 0 0 0 0 0 0 0 0 0 0
mrqq: max=16 avg=0.125139

========= L2 cache stats =========
L2_cache_bank[0]: Access = 107707, Miss = 93367, Miss_rate = 0.867, Pending_hits = 2394, Reservation_fails = 83833
L2_cache_bank[1]: Access = 96645, Miss = 92584, Miss_rate = 0.958, Pending_hits = 68, Reservation_fails = 0
L2_cache_bank[2]: Access = 96781, Miss = 92612, Miss_rate = 0.957, Pending_hits = 92, Reservation_fails = 191
L2_cache_bank[3]: Access = 107775, Miss = 93378, Miss_rate = 0.866, Pending_hits = 2406, Reservation_fails = 83808
L2_cache_bank[4]: Access = 96923, Miss = 92601, Miss_rate = 0.955, Pending_hits = 97, Reservation_fails = 254
L2_cache_bank[5]: Access = 108086, Miss = 93384, Miss_rate = 0.864, Pending_hits = 2410, Reservation_fails = 83214
L2_cache_bank[6]: Access = 107547, Miss = 93376, Miss_rate = 0.868, Pending_hits = 2388, Reservation_fails = 83377
L2_cache_bank[7]: Access = 97148, Miss = 92642, Miss_rate = 0.954, Pending_hits = 127, Reservation_fails = 175
L2_cache_bank[8]: Access = 107626, Miss = 93349, Miss_rate = 0.867, Pending_hits = 2362, Reservation_fails = 82616
L2_cache_bank[9]: Access = 96706, Miss = 92586, Miss_rate = 0.957, Pending_hits = 67, Reservation_fails = 0
L2_cache_bank[10]: Access = 96888, Miss = 92622, Miss_rate = 0.956, Pending_hits = 118, Reservation_fails = 227
L2_cache_bank[11]: Access = 107642, Miss = 93379, Miss_rate = 0.867, Pending_hits = 2391, Reservation_fails = 83396
L2_total_cache_accesses = 1227474
L2_total_cache_misses = 1115880
L2_total_cache_miss_rate = 0.9091
L2_total_cache_pending_hits = 14920
L2_total_cache_reservation_fails = 501091
L2_total_cache_breakdown:
	L2_cache_stats_breakdown[GLOBAL_ACC_R][HIT] = 57311
	L2_cache_stats_breakdown[GLOBAL_ACC_R][HIT_RESERVED] = 13957
	L2_cache_stats_breakdown[GLOBAL_ACC_R][MISS] = 1114728
	L2_cache_stats_breakdown[GLOBAL_ACC_R][RESERVATION_FAIL] = 500303
	L2_cache_stats_breakdown[CONST_ACC_R][HIT] = 11
	L2_cache_stats_breakdown[CONST_ACC_R][HIT_RESERVED] = 3
	L2_cache_stats_breakdown[CONST_ACC_R][MISS] = 1
	L2_cache_stats_breakdown[CONST_ACC_R][RESERVATION_FAIL] = 109
	L2_cache_stats_breakdown[GLOBAL_ACC_W][HIT] = 39275
	L2_cache_stats_breakdown[GLOBAL_ACC_W][HIT_RESERVED] = 939
	L2_cache_stats_breakdown[GLOBAL_ACC_W][MISS] = 1144
	L2_cache_stats_breakdown[GLOBAL_ACC_W][RESERVATION_FAIL] = 1
	L2_cache_stats_breakdown[INST_ACC_R][HIT] = 77
	L2_cache_stats_breakdown[INST_ACC_R][HIT_RESERVED] = 21
	L2_cache_stats_breakdown[INST_ACC_R][MISS] = 7
	L2_cache_stats_breakdown[INST_ACC_R][RESERVATION_FAIL] = 678
L2_cache_data_port_util = 0.003
L2_cache_fill_port_util = 0.028

icnt_total_pkts_mem_to_simt=5971908
icnt_total_pkts_simt_to_mem=1358213
LD_mem_lat_dist  0 0 0 0 0 0 0 0 0 0 0 0 0 0 0 0 0 0 0 0 0 0 0 0 0 0 0
ST_mem_lat_dist  0 0 0 0 0 0 0 0 0 0 0 0 0 0 0 0 0 0 0 0 0 0 0 0 0 0 0
----------------------------Interconnect-DETAILS--------------------------------
Class 0:
Packet latency average = 11.0026
	minimum = 6
	maximum = 111
Network latency average = 9.84519
	minimum = 6
	maximum = 88
Slowest packet = 1294205
Flit latency average = 8.73145
	minimum = 6
	maximum = 84
Slowest flit = 6176960
Fragmentation average = 0
	minimum = 0
	maximum = 0
Injected packet rate average = 0.00658613
	minimum = 0.00555706 (at node 2)
	maximum = 0.00864955 (at node 18)
Accepted packet rate average = 0.00658613
	minimum = 0.00555706 (at node 2)
	maximum = 0.00864955 (at node 18)
Injected flit rate average = 0.0197232
	minimum = 0.00588041 (at node 8)
	maximum = 0.0427383 (at node 18)
Accepted flit rate average= 0.0197232
	minimum = 0.00742673 (at node 16)
	maximum = 0.0308258 (at node 0)
Injected packet length average = 2.99465
Accepted packet length average = 2.99465
Total in-flight flits = 0 (0 measured)
====== Overall Traffic Statistics ======
====== Traffic class 0 ======
Packet latency average = 11.4989 (2 samples)
	minimum = 6 (2 samples)
	maximum = 148.5 (2 samples)
Network latency average = 10.1904 (2 samples)
	minimum = 6 (2 samples)
	maximum = 105.5 (2 samples)
Flit latency average = 8.99747 (2 samples)
	minimum = 6 (2 samples)
	maximum = 101.5 (2 samples)
Fragmentation average = 4.68166e-05 (2 samples)
	minimum = 0 (2 samples)
	maximum = 26 (2 samples)
Injected packet rate average = 0.00681766 (2 samples)
	minimum = 0.0057491 (2 samples)
	maximum = 0.00891863 (2 samples)
Accepted packet rate average = 0.00681766 (2 samples)
	minimum = 0.0057491 (2 samples)
	maximum = 0.00891863 (2 samples)
Injected flit rate average = 0.0203566 (2 samples)
	minimum = 0.00635975 (2 samples)
	maximum = 0.0435675 (2 samples)
Accepted flit rate average = 0.0203566 (2 samples)
	minimum = 0.00804987 (2 samples)
	maximum = 0.0314961 (2 samples)
Injected packet size average = 2.98587 (2 samples)
Accepted packet size average = 2.98587 (2 samples)
Hops average = 1 (2 samples)
