

        *** GPGPU-Sim Simulator Version 3.2.2  [build 0] ***


GPGPU-Sim PTX: simulation mode 0 (can change with PTX_SIM_MODE_FUNC environment variable:
               1=functional simulation only, 0=detailed performance simulator)
GPGPU-Sim: Configuration options:

-network_mode                           1 # Interconnection network mode
-inter_config_file   config_fermi_islip.icnt # Interconnection network config file
-gpgpu_ptx_use_cuobjdump                    1 # Use cuobjdump to extract ptx and sass from binaries
-gpgpu_experimental_lib_support                    0 # Try to extract code from cuda libraries [Broken because of unknown cudaGetExportTable]
-gpgpu_ptx_convert_to_ptxplus                    0 # Convert SASS (native ISA) to ptxplus and run ptxplus
-gpgpu_ptx_force_max_capability                   20 # Force maximum compute capability
-gpgpu_ptx_inst_debug_to_file                    0 # Dump executed instructions' debug information to file
-gpgpu_ptx_inst_debug_file       inst_debug.txt # Executed instructions' debug output file
-gpgpu_ptx_inst_debug_thread_uid                    1 # Thread UID for executed instructions' debug output
-gpgpu_simd_model                       1 # 1 = post-dominator
-gpgpu_shader_core_pipeline              1536:32 # shader core pipeline config, i.e., {<nthread>:<warpsize>}
-gpgpu_tex_cache:l1  4:128:24,L:R:m:N:L,F:128:4,128:2 # per-shader L1 texture cache  (READ-ONLY) config  {<nsets>:<bsize>:<assoc>,<rep>:<wr>:<alloc>:<wr_alloc>,<mshr>:<N>:<merge>,<mq>:<rf>}
-gpgpu_const_cache:l1 64:64:2,L:R:f:N:L,A:2:32,4 # per-shader L1 constant memory cache  (READ-ONLY) config  {<nsets>:<bsize>:<assoc>,<rep>:<wr>:<alloc>:<wr_alloc>,<mshr>:<N>:<merge>,<mq>} 
-gpgpu_cache:il1     4:128:4,L:R:f:N:L,A:2:32,4 # shader L1 instruction cache config  {<nsets>:<bsize>:<assoc>,<rep>:<wr>:<alloc>:<wr_alloc>,<mshr>:<N>:<merge>,<mq>} 
-gpgpu_cache:dl1     32:128:4,L:L:m:N:H,A:32:8,8:2,0,1:0:1:1:0:1,1:4:8:16:32:64,/sciclone/data10/hwang07/GPU_RESEARCH/swl/swl_outputs/RESULTS/swl16/ # per-shader L1 data cache config  {<nsets>:<bsize>:<assoc>,<rep>:<wr>:<alloc>:<wr_alloc>,<mshr>:<N>:<merge>,<mq> | none}
-gpgpu_cache:dl1PrefL1                 none # per-shader L1 data cache config  {<nsets>:<bsize>:<assoc>,<rep>:<wr>:<alloc>:<wr_alloc>,<mshr>:<N>:<merge>,<mq> | none}
-gpgpu_cache:dl1PreShared                 none # per-shader L1 data cache config  {<nsets>:<bsize>:<assoc>,<rep>:<wr>:<alloc>:<wr_alloc>,<mshr>:<N>:<merge>,<mq> | none}
-gmem_skip_L1D                          0 # global memory access skip L1D cache (implements -Xptxas -dlcm=cg, default=no skip)
-gpgpu_perfect_mem                      0 # enable perfect memory mode (no cache miss)
-n_regfile_gating_group                    4 # group of lanes that should be read/written together)
-gpgpu_clock_gated_reg_file                    0 # enable clock gated reg file for power calculations
-gpgpu_clock_gated_lanes                    0 # enable clock gated lanes for power calculations
-gpgpu_shader_registers                32768 # Number of registers per shader core. Limits number of concurrent CTAs. (default 8192)
-gpgpu_shader_cta                       8 # Maximum number of concurrent CTAs in shader (default 8)
-gpgpu_num_cta_barriers                   16 # Maximum number of named barriers per CTA (default 16)
-gpgpu_n_clusters                      15 # number of processing clusters
-gpgpu_n_cores_per_cluster                    1 # number of simd cores per cluster
-gpgpu_n_cluster_ejection_buffer_size                    8 # number of packets in ejection buffer
-gpgpu_n_ldst_response_buffer_size                    2 # number of response packets in ld/st unit ejection buffer
-gpgpu_shmem_size                   16384 # Size of shared memory per shader core (default 16kB)
-gpgpu_shmem_size                   49152 # Size of shared memory per shader core (default 16kB)
-gpgpu_shmem_size_PrefL1                16384 # Size of shared memory per shader core (default 16kB)
-gpgpu_shmem_size_PrefShared                16384 # Size of shared memory per shader core (default 16kB)
-gpgpu_shmem_num_banks                   32 # Number of banks in the shared memory in each shader core (default 16)
-gpgpu_shmem_limited_broadcast                    0 # Limit shared memory to do one broadcast per cycle (default on)
-gpgpu_shmem_warp_parts                    1 # Number of portions a warp is divided into for shared memory bank conflict check 
-gpgpu_warpdistro_shader                   -1 # Specify which shader core to collect the warp size distribution from
-gpgpu_warp_issue_shader                    0 # Specify which shader core to collect the warp issue distribution from
-gpgpu_local_mem_map                    1 # Mapping from local memory space address to simulated GPU physical address space (default = enabled)
-gpgpu_num_reg_banks                   16 # Number of register banks (default = 8)
-gpgpu_reg_bank_use_warp_id                    0 # Use warp ID in mapping registers to banks (default = off)
-gpgpu_operand_collector_num_units_sp                    6 # number of collector units (default = 4)
-gpgpu_operand_collector_num_units_sfu                    8 # number of collector units (default = 4)
-gpgpu_operand_collector_num_units_mem                    2 # number of collector units (default = 2)
-gpgpu_operand_collector_num_units_gen                    0 # number of collector units (default = 0)
-gpgpu_operand_collector_num_in_ports_sp                    2 # number of collector unit in ports (default = 1)
-gpgpu_operand_collector_num_in_ports_sfu                    1 # number of collector unit in ports (default = 1)
-gpgpu_operand_collector_num_in_ports_mem                    1 # number of collector unit in ports (default = 1)
-gpgpu_operand_collector_num_in_ports_gen                    0 # number of collector unit in ports (default = 0)
-gpgpu_operand_collector_num_out_ports_sp                    2 # number of collector unit in ports (default = 1)
-gpgpu_operand_collector_num_out_ports_sfu                    1 # number of collector unit in ports (default = 1)
-gpgpu_operand_collector_num_out_ports_mem                    1 # number of collector unit in ports (default = 1)
-gpgpu_operand_collector_num_out_ports_gen                    0 # number of collector unit in ports (default = 0)
-gpgpu_coalesce_arch                   13 # Coalescing arch (default = 13, anything else is off for now)
-gpgpu_num_sched_per_core                    2 # Number of warp schedulers per core
-gpgpu_max_insn_issue_per_warp                    1 # Max number of instructions that can be issued per warp in one cycle by scheduler
-gpgpu_simt_core_sim_order                    1 # Select the simulation order of cores in a cluster (0=Fix, 1=Round-Robin)
-gpgpu_pipeline_widths        2,1,1,2,1,1,2 # Pipeline widths ID_OC_SP,ID_OC_SFU,ID_OC_MEM,OC_EX_SP,OC_EX_SFU,OC_EX_MEM,EX_WB
-gpgpu_num_sp_units                     2 # Number of SP units (default=1)
-gpgpu_num_sfu_units                    1 # Number of SF units (default=1)
-gpgpu_num_mem_units                    1 # Number if ldst units (default=1) WARNING: not hooked up to anything
-gpgpu_scheduler       warp_limiting:2:16 # Scheduler configuration: < lrr | gto | two_level_active > If two_level_active:<num_active_warps>:<inner_prioritization>:<outer_prioritization>For complete list of prioritization values see shader.h enum scheduler_prioritization_typeDefault: gto
-gpgpu_dram_scheduler                    1 # 0 = fifo, 1 = FR-FCFS (defaul)
-gpgpu_dram_partition_queues              8:8:8:8 # i2$:$2d:d2$:$2i
-l2_ideal                               0 # Use a ideal L2 cache that always hit
-gpgpu_cache:dl2     64:128:8,L:B:m:W:L,A:32:4,4:0,32 # unified banked L2 data cache config  {<nsets>:<bsize>:<assoc>,<rep>:<wr>:<alloc>:<wr_alloc>,<mshr>:<N>:<merge>,<mq>}
-gpgpu_cache:dl2_texture_only                    0 # L2 cache used for texture only
-gpgpu_n_mem                            6 # number of memory modules (e.g. memory controllers) in gpu
-gpgpu_n_sub_partition_per_mchannel                    2 # number of memory subpartition in each memory module
-gpgpu_n_mem_per_ctrlr                    2 # number of memory chips per memory controller
-gpgpu_memlatency_stat                   14 # track and display latency statistics 0x2 enables MC, 0x4 enables queue logs
-gpgpu_frfcfs_dram_sched_queue_size                   16 # 0 = unlimited (default); # entries per chip
-gpgpu_dram_return_queue_size                  116 # 0 = unlimited (default); # entries per chip
-gpgpu_dram_buswidth                    4 # default = 4 bytes (8 bytes per cycle at DDR)
-gpgpu_dram_burst_length                    8 # Burst length of each DRAM request (default = 4 data bus cycle)
-dram_data_command_freq_ratio                    4 # Frequency ratio between DRAM data bus and command bus (default = 2 times, i.e. DDR)
-gpgpu_dram_timing_opt nbk=16:CCD=2:RRD=6:RCD=12:RAS=28:RP=12:RC=40: CL=12:WL=4:CDLR=5:WR=12:nbkgrp=4:CCDL=3:RTPL=2 # DRAM timing parameters = {nbk:tCCD:tRRD:tRCD:tRAS:tRP:tRC:CL:WL:tCDLR:tWR:nbkgrp:tCCDL:tRTPL}
-rop_latency                          120 # ROP queue latency (default 85)
-dram_latency                         100 # DRAM latency (default 30)
-gpgpu_mem_addr_mapping dramid@8;00000000.00000000.00000000.00000000.0000RRRR.RRRRRRRR.BBBCCCCB.CCSSSSSS # mapping memory address to dram model {dramid@<start bit>;<memory address map>}
-gpgpu_mem_addr_test                    0 # run sweep test to check address mapping for aliased address
-gpgpu_mem_address_mask                    1 # 0 = old addressing mask, 1 = new addressing mask, 2 = new add. mask + flipped bank sel and chip sel bits
-gpuwattch_xml_file  gpuwattch_gtx480.xml # GPUWattch XML file
-power_simulation_enabled                    0 # Turn on power simulator (1=On, 0=Off)
-power_per_cycle_dump                    0 # Dump detailed power output each cycle
-power_trace_enabled                    0 # produce a file for the power trace (1=On, 0=Off)
-power_trace_zlevel                     6 # Compression level of the power trace output log (0=no comp, 9=highest)
-steady_power_levels_enabled                    0 # produce a file for the steady power levels (1=On, 0=Off)
-steady_state_definition                  8:4 # allowed deviation:number of samples
-gpgpu_max_cycle                        0 # terminates gpu simulation early (0 = no limit)
-gpgpu_max_insn                         0 # terminates gpu simulation early (0 = no limit)
-gpgpu_max_cta                          0 # terminates gpu simulation early (0 = no limit)
-gpgpu_runtime_stat                   500 # display runtime statistics such as dram utilization {<freq>:<flag>}
-liveness_message_freq                    1 # Minimum number of seconds between simulation liveness messages (0 = always print)
-gpgpu_flush_l1_cache                    0 # Flush L1 cache at the end of each kernel call
-gpgpu_flush_l2_cache                    0 # Flush L2 cache at the end of each kernel call
-gpgpu_deadlock_detect                    1 # Stop the simulation at deadlock (1=on (default), 0=off)
-gpgpu_ptx_instruction_classification                    0 # if enabled will classify ptx instruction types per kernel (Max 255 kernels now)
-gpgpu_ptx_sim_mode                     0 # Select between Performance (default) or Functional simulation (1)
-gpgpu_clock_domains 700.0:700.0:700.0:924.0 # Clock Domain Frequencies in MhZ {<Core Clock>:<ICNT Clock>:<L2 Clock>:<DRAM Clock>}
-gpgpu_max_concurrent_kernel                    8 # maximum kernels that can run concurrently on GPU
-gpgpu_cflog_interval                    0 # Interval between each snapshot in control flow logger
-visualizer_enabled                     0 # Turn on visualizer output (1=On, 0=Off)
-visualizer_outputfile                 NULL # Specifies the output log file for visualizer
-visualizer_zlevel                      6 # Compression level of the visualizer output log (0=no comp, 9=highest)
-trace_enabled                          0 # Turn on traces
-trace_components                    none # comma seperated list of traces to enable. Complete list found in trace_streams.tup. Default none
-trace_sampling_core                    0 # The core which is printed using CORE_DPRINTF. Default 0
-trace_sampling_memory_partition                   -1 # The memory partition which is printed using MEMPART_DPRINTF. Default -1 (i.e. all)
-enable_ptx_file_line_stats                    1 # Turn on PTX source line statistic profiling. (1 = On)
-ptx_line_stats_filename gpgpu_inst_stats.txt # Output file for PTX source line statistics.
-save_embedded_ptx                      0 # saves ptx files embedded in binary as <n>.ptx
-keep                                   0 # keep intermediate files created by GPGPU-Sim when interfacing with external programs
-gpgpu_ptx_save_converted_ptxplus                    0 # Saved converted ptxplus to a file
-ptx_opcode_latency_int         4,13,4,5,145 # Opcode latencies for integers <ADD,MAX,MUL,MAD,DIV>Default 1,1,19,25,145
-ptx_opcode_latency_fp          4,13,4,5,39 # Opcode latencies for single precision floating points <ADD,MAX,MUL,MAD,DIV>Default 1,1,1,1,30
-ptx_opcode_latency_dp         8,19,8,8,330 # Opcode latencies for double precision floating points <ADD,MAX,MUL,MAD,DIV>Default 8,8,8,8,335
-ptx_opcode_initiation_int            1,2,2,1,8 # Opcode initiation intervals for integers <ADD,MAX,MUL,MAD,DIV>Default 1,1,4,4,32
-ptx_opcode_initiation_fp            1,2,1,1,4 # Opcode initiation intervals for single precision floating points <ADD,MAX,MUL,MAD,DIV>Default 1,1,1,1,5
-ptx_opcode_initiation_dp         8,16,8,8,130 # Opcode initiation intervals for double precision floating points <ADD,MAX,MUL,MAD,DIV>Default 8,8,8,8,130
DRAM Timing Options:
nbk                                    16 # number of banks
CCD                                     2 # column to column delay
RRD                                     6 # minimal delay between activation of rows in different banks
RCD                                    12 # row to column delay
RAS                                    28 # time needed to activate row
RP                                     12 # time needed to precharge (deactivate) row
RC                                     40 # row cycle time
CDLR                                    5 # switching from write to read (changes tWTR)
WR                                     12 # last data-in to row precharge
CL                                     12 # CAS latency
WL                                      4 # Write latency
nbkgrp                                  4 # number of bank groups
CCDL                                    3 # column to column delay between accesses to different bank groups
RTPL                                    2 # read to precharge delay between accesses to different bank groups
Total number of memory sub partition = 12
addr_dec_mask[CHIP]  = 0000000000000000 	high:64 low:0
addr_dec_mask[BK]    = 000000000000e100 	high:16 low:8
addr_dec_mask[ROW]   = 000000000fff0000 	high:28 low:16
addr_dec_mask[COL]   = 0000000000001eff 	high:13 low:0
addr_dec_mask[BURST] = 000000000000003f 	high:6 low:0
sub_partition_id_mask = 0000000000000100
GPGPU-Sim uArch: clock freqs: 700000000.000000:700000000.000000:700000000.000000:924000000.000000
GPGPU-Sim uArch: clock periods: 0.00000000142857142857:0.00000000142857142857:0.00000000142857142857:0.00000000108225108225
*** Initializing Memory Statistics ***
GPGPU-Sim uArch: interconnect node map (shaderID+MemID to icntID)
GPGPU-Sim uArch: Memory nodes ID start from index: 15
GPGPU-Sim uArch:    0   1   2   3   4
GPGPU-Sim uArch:    5   6   7   8   9
GPGPU-Sim uArch:   10  11  12  13  14
GPGPU-Sim uArch:   15  16  17  18  19
GPGPU-Sim uArch:   20  21  22  23  24
GPGPU-Sim uArch:   25  26
GPGPU-Sim uArch: interconnect node reverse map (icntID to shaderID+MemID)
GPGPU-Sim uArch: Memory nodes start from ID: 15
GPGPU-Sim uArch:    0   1   2   3   4
GPGPU-Sim uArch:    5   6   7   8   9
GPGPU-Sim uArch:   10  11  12  13  14
GPGPU-Sim uArch:   15  16  17  18  19
GPGPU-Sim uArch:   20  21  22  23  24
GPGPU-Sim uArch:   25  26
63bd3ec3b64f8e638c2c8523e2878dda  /sciclone/data10/hwang07/adwait/applications/benchmarks/rodinia/cuda/particlefilter/gpgpu_ptx_sim__particlefilter_float
GPGPU-Sim uArch: performance model initialization complete.
GPGPU-Sim PTX: __cudaRegisterFatBinary, fat_cubin_handle = 1, filename=ex_particle_CUDA_float_seq.cu
self exe links to: /sciclone/data10/hwang07/adwait/applications/benchmarks/rodinia/cuda/particlefilter/gpgpu_ptx_sim__particlefilter_float
Running md5sum using "md5sum /sciclone/data10/hwang07/adwait/applications/benchmarks/rodinia/cuda/particlefilter/gpgpu_ptx_sim__particlefilter_float "
Parsing file _cuobjdump_complete_output_CoNimz
######### cuobjdump parser ########
## Adding new section PTX
Adding ptx filename: _cuobjdump_1.ptx
Adding arch: sm_13
Adding identifier: ex_particle_CUDA_float_seq.cu
## Adding new section ELF
Adding arch: sm_13
Adding identifier: ex_particle_CUDA_float_seq.cu
Done parsing!!!
GPGPU-Sim PTX: __cudaRegisterFunction _Z17likelihood_kernelPfS_S_PiS0_S_PhS_S_iiiiiiS0_S_ : hostFun 0x0x4014b0, fat_cubin_handle = 1
GPGPU-Sim PTX: encountered texture directive tex_CDF.
GPGPU-Sim PTX: instruction assembly for function '_Z17find_index_kernelPfS_S_S_S_S_S_i'...   done.
GPGPU-Sim PTX: finding reconvergence points for '_Z17find_index_kernelPfS_S_S_S_S_S_i'...
GPGPU-Sim PTX: Finding dominators for '_Z17find_index_kernelPfS_S_S_S_S_S_i'...
GPGPU-Sim PTX: Finding immediate dominators for '_Z17find_index_kernelPfS_S_S_S_S_S_i'...
GPGPU-Sim PTX: Finding postdominators for '_Z17find_index_kernelPfS_S_S_S_S_S_i'...
GPGPU-Sim PTX: Finding immediate postdominators for '_Z17find_index_kernelPfS_S_S_S_S_S_i'...
GPGPU-Sim PTX: pre-decoding instructions for '_Z17find_index_kernelPfS_S_S_S_S_S_i'...
GPGPU-Sim PTX: reconvergence points for _Z17find_index_kernelPfS_S_S_S_S_S_i...
GPGPU-Sim PTX:  1 (potential) branch divergence @  PC=0x040 (_1.ptx:76) @%p1 bra $Lt_0_3842;
GPGPU-Sim PTX:    immediate post dominator      @  PC=0x218 (_1.ptx:153) exit;
GPGPU-Sim PTX:  2 (potential) branch divergence @  PC=0x060 (_1.ptx:80) @%p2 bra $Lt_0_5890;
GPGPU-Sim PTX:    immediate post dominator      @  PC=0x158 (_1.ptx:124) ld.param.s32 %r5, [__cudaparm__Z17find_index_kernelPfS_S_S_S_S_S_i_Nparticles];
GPGPU-Sim PTX:  3 (potential) branch divergence @  PC=0x100 (_1.ptx:103) @!%p3 bra $Lt_0_5122;
GPGPU-Sim PTX:    immediate post dominator      @  PC=0x158 (_1.ptx:124) ld.param.s32 %r5, [__cudaparm__Z17find_index_kernelPfS_S_S_S_S_S_i_Nparticles];
GPGPU-Sim PTX:  4 (potential) branch divergence @  PC=0x110 (_1.ptx:107) bra.uni $Lt_0_258;
GPGPU-Sim PTX:    immediate post dominator      @  PC=0x158 (_1.ptx:124) ld.param.s32 %r5, [__cudaparm__Z17find_index_kernelPfS_S_S_S_S_S_i_Nparticles];
GPGPU-Sim PTX:  5 (potential) branch divergence @  PC=0x130 (_1.ptx:115) @%p4 bra $Lt_0_4866;
GPGPU-Sim PTX:    immediate post dominator      @  PC=0x158 (_1.ptx:124) ld.param.s32 %r5, [__cudaparm__Z17find_index_kernelPfS_S_S_S_S_S_i_Nparticles];
GPGPU-Sim PTX:  6 (potential) branch divergence @  PC=0x138 (_1.ptx:116) bra.uni $Lt_0_4354;
GPGPU-Sim PTX:    immediate post dominator      @  PC=0x150 (_1.ptx:121) mov.s32 %r17, -1;
GPGPU-Sim PTX: ... end of reconvergence points for _Z17find_index_kernelPfS_S_S_S_S_S_i
GPGPU-Sim PTX: ... done pre-decoding instructions for '_Z17find_index_kernelPfS_S_S_S_S_S_i'.
GPGPU-Sim PTX: allocating shared region for "__cuda_local_var_35012_36_non_const_sumWeights" from 0x0 to 0x4 (shared memory space)
GPGPU-Sim PTX: allocating shared region for "__cuda_local_var_35012_32_non_const_u1" from 0x4 to 0x8 (shared memory space)
GPGPU-Sim PTX: instruction assembly for function '_Z24normalize_weights_kernelPfiS_S_S_Pi'...   done.
GPGPU-Sim PTX: finding reconvergence points for '_Z24normalize_weights_kernelPfiS_S_S_Pi'...
GPGPU-Sim PTX: Finding dominators for '_Z24normalize_weights_kernelPfiS_S_S_Pi'...
GPGPU-Sim PTX: Finding immediate dominators for '_Z24normalize_weights_kernelPfiS_S_S_Pi'...
GPGPU-Sim PTX: Finding postdominators for '_Z24normalize_weights_kernelPfiS_S_S_Pi'...
GPGPU-Sim PTX: Finding immediate postdominators for '_Z24normalize_weights_kernelPfiS_S_S_Pi'...
GPGPU-Sim PTX: pre-decoding instructions for '_Z24normalize_weights_kernelPfiS_S_S_Pi'...
GPGPU-Sim PTX: reconvergence points for _Z24normalize_weights_kernelPfiS_S_S_Pi...
GPGPU-Sim PTX:  1 (potential) branch divergence @  PC=0x278 (_1.ptx:186) @!%p1 bra $Lt_1_3586;
GPGPU-Sim PTX:    immediate post dominator      @  PC=0x2b8 (_1.ptx:196) mov.u32 %r6, 0;
GPGPU-Sim PTX:  2 (potential) branch divergence @  PC=0x2c8 (_1.ptx:198) @%p2 bra $Lt_1_4098;
GPGPU-Sim PTX:    immediate post dominator      @  PC=0x490 (_1.ptx:272) @!%p1 bra $Lt_1_5634;
GPGPU-Sim PTX:  3 (potential) branch divergence @  PC=0x308 (_1.ptx:209) @%p3 bra $Lt_1_4610;
GPGPU-Sim PTX:    immediate post dominator      @  PC=0x3a0 (_1.ptx:237) ld.param.u64 %rd10, [__cudaparm__Z24normalize_weights_kernelPfiS_S_S_Pi_seed];
GPGPU-Sim PTX:  4 (potential) branch divergence @  PC=0x398 (_1.ptx:234) @%p4 bra $Lt_1_5122;
GPGPU-Sim PTX:    immediate post dominator      @  PC=0x3a0 (_1.ptx:237) ld.param.u64 %rd10, [__cudaparm__Z24normalize_weights_kernelPfiS_S_S_Pi_seed];
GPGPU-Sim PTX:  5 (potential) branch divergence @  PC=0x490 (_1.ptx:272) @!%p1 bra $Lt_1_5634;
GPGPU-Sim PTX:    immediate post dominator      @  PC=0x4f0 (_1.ptx:288) exit;
GPGPU-Sim PTX: ... end of reconvergence points for _Z24normalize_weights_kernelPfiS_S_S_Pi
GPGPU-Sim PTX: ... done pre-decoding instructions for '_Z24normalize_weights_kernelPfiS_S_S_Pi'.
GPGPU-Sim PTX: encountered texture directive tex_sums.
GPGPU-Sim PTX: instruction assembly for function '_Z10sum_kernelPfi'...   done.
GPGPU-Sim PTX: finding reconvergence points for '_Z10sum_kernelPfi'...
GPGPU-Sim PTX: Finding dominators for '_Z10sum_kernelPfi'...
GPGPU-Sim PTX: Finding immediate dominators for '_Z10sum_kernelPfi'...
GPGPU-Sim PTX: Finding postdominators for '_Z10sum_kernelPfi'...
GPGPU-Sim PTX: Finding immediate postdominators for '_Z10sum_kernelPfi'...
GPGPU-Sim PTX: pre-decoding instructions for '_Z10sum_kernelPfi'...
GPGPU-Sim PTX: reconvergence points for _Z10sum_kernelPfi...
GPGPU-Sim PTX:  1 (potential) branch divergence @  PC=0x538 (_1.ptx:312) @%p1 bra $Lt_2_2050;
GPGPU-Sim PTX:    immediate post dominator      @  PC=0x630 (_1.ptx:351) exit;
GPGPU-Sim PTX:  2 (potential) branch divergence @  PC=0x580 (_1.ptx:321) @%p2 bra $Lt_2_3586;
GPGPU-Sim PTX:    immediate post dominator      @  PC=0x620 (_1.ptx:347) ld.param.u64 %rd1, [__cudaparm__Z10sum_kernelPfi_partial_sums];
GPGPU-Sim PTX:  3 (potential) branch divergence @  PC=0x608 (_1.ptx:341) @%p3 bra $Lt_2_3074;
GPGPU-Sim PTX:    immediate post dominator      @  PC=0x610 (_1.ptx:342) bra.uni $Lt_2_2562;
GPGPU-Sim PTX:  4 (potential) branch divergence @  PC=0x610 (_1.ptx:342) bra.uni $Lt_2_2562;
GPGPU-Sim PTX:    immediate post dominator      @  PC=0x620 (_1.ptx:347) ld.param.u64 %rd1, [__cudaparm__Z10sum_kernelPfi_partial_sums];
GPGPU-Sim PTX: ... end of reconvergence points for _Z10sum_kernelPfi
GPGPU-Sim PTX: ... done pre-decoding instructions for '_Z10sum_kernelPfi'.
GPGPU-Sim PTX: allocating shared region for "__cuda___cuda_local_var_35086_32_non_const_buffer240" from 0x0 to 0x800 (shared memory space)
GPGPU-Sim PTX: instruction assembly for function '_Z17likelihood_kernelPfS_S_PiS0_S_PhS_S_iiiiiiS0_S_'...   done.
GPGPU-Sim PTX: finding reconvergence points for '_Z17likelihood_kernelPfS_S_PiS0_S_PhS_S_iiiiiiS0_S_'...
GPGPU-Sim PTX: Finding dominators for '_Z17likelihood_kernelPfS_S_PiS0_S_PhS_S_iiiiiiS0_S_'...
GPGPU-Sim PTX: Finding immediate dominators for '_Z17likelihood_kernelPfS_S_PiS0_S_PhS_S_iiiiiiS0_S_'...
GPGPU-Sim PTX: Finding postdominators for '_Z17likelihood_kernelPfS_S_PiS0_S_PhS_S_iiiiiiS0_S_'...
GPGPU-Sim PTX: Finding immediate postdominators for '_Z17likelihood_kernelPfS_S_PiS0_S_PhS_S_iiiiiiS0_S_'...
GPGPU-Sim PTX: pre-decoding instructions for '_Z17likelihood_kernelPfS_S_PiS0_S_PhS_S_iiiiiiS0_S_'...
GPGPU-Sim PTX: reconvergence points for _Z17likelihood_kernelPfS_S_PiS0_S_PhS_S_iiiiiiS0_S_...
GPGPU-Sim PTX:  1 (potential) branch divergence @  PC=0x670 (_1.ptx:389) @!%p1 bra $Lt_3_18690;
GPGPU-Sim PTX:    immediate post dominator      @  PC=0xa80 (_1.ptx:527) @!%p1 bra $Lt_3_27394;
GPGPU-Sim PTX:  2 (potential) branch divergence @  PC=0xa80 (_1.ptx:527) @!%p1 bra $Lt_3_27394;
GPGPU-Sim PTX:    immediate post dominator      @  PC=0x1100 (_1.ptx:803) exit;
GPGPU-Sim PTX:  3 (potential) branch divergence @  PC=0xaa0 (_1.ptx:531) @!%p6 bra $Lt_3_27906;
GPGPU-Sim PTX:    immediate post dominator      @  PC=0xd28 (_1.ptx:631) @!%p6 bra $Lt_3_28162;
GPGPU-Sim PTX:  4 (potential) branch divergence @  PC=0xbd0 (_1.ptx:572) @!%p8 bra $Lt_3_20482;
GPGPU-Sim PTX:    immediate post dominator      @  PC=0xbe0 (_1.ptx:577) ld.global.s32 %r75, [%rd10+4];
GPGPU-Sim PTX:  5 (potential) branch divergence @  PC=0xc60 (_1.ptx:595) @!%p10 bra $Lt_3_20994;
GPGPU-Sim PTX:    immediate post dominator      @  PC=0xc70 (_1.ptx:600) ld.global.s32 %r79, [%rd10+0];
GPGPU-Sim PTX:  6 (potential) branch divergence @  PC=0xcd0 (_1.ptx:615) @%p11 bra $Lt_3_21506;
GPGPU-Sim PTX:    immediate post dominator      @  PC=0xce8 (_1.ptx:620) add.u64 %rd16, %rd16, 4;
GPGPU-Sim PTX:  7 (potential) branch divergence @  PC=0xd08 (_1.ptx:624) @%p12 bra $Lt_3_20226;
GPGPU-Sim PTX:    immediate post dominator      @  PC=0xd10 (_1.ptx:625) bra.uni $Lt_3_19714;
GPGPU-Sim PTX:  8 (potential) branch divergence @  PC=0xd10 (_1.ptx:625) bra.uni $Lt_3_19714;
GPGPU-Sim PTX:    immediate post dominator      @  PC=0xd28 (_1.ptx:631) @!%p6 bra $Lt_3_28162;
GPGPU-Sim PTX:  9 (potential) branch divergence @  PC=0xd28 (_1.ptx:631) @!%p6 bra $Lt_3_28162;
GPGPU-Sim PTX:    immediate post dominator      @  PC=0xf48 (_1.ptx:730) ld.param.s32 %r61, [__cudaparm__Z17likelihood_kernelPfS_S_PiS0_S_PhS_S_iiiiiiS0_S__countOnes];
GPGPU-Sim PTX: 10 (potential) branch divergence @  PC=0xe08 (_1.ptx:669) @%p13 bra $Lt_3_23042;
GPGPU-Sim PTX:    immediate post dominator      @  PC=0xe18 (_1.ptx:674) shr.u32 %r91, %r91, 1;
GPGPU-Sim PTX: 11 (potential) branch divergence @  PC=0xe30 (_1.ptx:677) @%p14 bra $Lt_3_23554;
GPGPU-Sim PTX:    immediate post dominator      @  PC=0xe38 (_1.ptx:679) mov.f32 %f73, %f72;
GPGPU-Sim PTX: 12 (potential) branch divergence @  PC=0xe40 (_1.ptx:680) bra.uni $LDWendi_powif_216_3;
GPGPU-Sim PTX:    immediate post dominator      @  PC=0xe60 (_1.ptx:688) mov.f32 %f75, %f70;
GPGPU-Sim PTX: 13 (potential) branch divergence @  PC=0xe58 (_1.ptx:685) bra.uni $Lt_3_14850;
GPGPU-Sim PTX:    immediate post dominator      @  PC=0xdf0 (_1.ptx:666) and.b32 %r92, %r91, 1;
GPGPU-Sim PTX: 14 (potential) branch divergence @  PC=0xe90 (_1.ptx:697) @%p15 bra $Lt_3_24066;
GPGPU-Sim PTX:    immediate post dominator      @  PC=0xea0 (_1.ptx:702) shr.u32 %r91, %r91, 1;
GPGPU-Sim PTX: 15 (potential) branch divergence @  PC=0xeb8 (_1.ptx:705) @%p16 bra $Lt_3_24578;
GPGPU-Sim PTX:    immediate post dominator      @  PC=0xec0 (_1.ptx:706) bra.uni $LDWendi_powif_216_1;
GPGPU-Sim PTX: 16 (potential) branch divergence @  PC=0xec0 (_1.ptx:706) bra.uni $LDWendi_powif_216_1;
GPGPU-Sim PTX:    immediate post dominator      @  PC=0xee0 (_1.ptx:714) cvt.f64.f32 %fd13, %f68;
GPGPU-Sim PTX: 17 (potential) branch divergence @  PC=0xed8 (_1.ptx:711) bra.uni $Lt_3_16130;
GPGPU-Sim PTX:    immediate post dominator      @  PC=0xe78 (_1.ptx:694) and.b32 %r95, %r91, 1;
GPGPU-Sim PTX: 18 (potential) branch divergence @  PC=0xf30 (_1.ptx:724) @%p17 bra $Lt_3_22786;
GPGPU-Sim PTX:    immediate post dominator      @  PC=0xf38 (_1.ptx:725) bra.uni $Lt_3_22274;
GPGPU-Sim PTX: 19 (potential) branch divergence @  PC=0xf38 (_1.ptx:725) bra.uni $Lt_3_22274;
GPGPU-Sim PTX:    immediate post dominator      @  PC=0xf48 (_1.ptx:730) ld.param.s32 %r61, [__cudaparm__Z17likelihood_kernelPfS_S_PiS0_S_PhS_S_iiiiiiS0_S__countOnes];
GPGPU-Sim PTX: 20 (potential) branch divergence @  PC=0xf80 (_1.ptx:740) @!%p1 bra $Lt_3_27394;
GPGPU-Sim PTX:    immediate post dominator      @  PC=0x1100 (_1.ptx:803) exit;
GPGPU-Sim PTX: 21 (potential) branch divergence @  PC=0x1038 (_1.ptx:768) @%p18 bra $Lt_3_25858;
GPGPU-Sim PTX:    immediate post dominator      @  PC=0x10b8 (_1.ptx:790) mov.u32 %r103, 0;
GPGPU-Sim PTX: 22 (potential) branch divergence @  PC=0x1048 (_1.ptx:771) @%p19 bra $Lt_3_26626;
GPGPU-Sim PTX:    immediate post dominator      @  PC=0x1090 (_1.ptx:783) bar.sync 0;
GPGPU-Sim PTX: 23 (potential) branch divergence @  PC=0x10b0 (_1.ptx:788) @%p20 bra $Lt_3_26370;
GPGPU-Sim PTX:    immediate post dominator      @  PC=0x10b8 (_1.ptx:790) mov.u32 %r103, 0;
GPGPU-Sim PTX: 24 (potential) branch divergence @  PC=0x10c8 (_1.ptx:792) @%p21 bra $Lt_3_27394;
GPGPU-Sim PTX:    immediate post dominator      @  PC=0x1100 (_1.ptx:803) exit;
GPGPU-Sim PTX: ... end of reconvergence points for _Z17likelihood_kernelPfS_S_PiS0_S_PhS_S_iiiiiiS0_S_
GPGPU-Sim PTX: ... done pre-decoding instructions for '_Z17likelihood_kernelPfS_S_PiS0_S_PhS_S_iiiiiiS0_S_'.
GPGPU-Sim PTX: finished parsing EMBEDDED .ptx file _1.ptx
Adding _cuobjdump_1.ptx with cubin handle 1
GPGPU-Sim PTX: extracting embedded .ptx to temporary file "_ptx_Q7qtC2"
Running: cat _ptx_Q7qtC2 | sed 's/.version 1.5/.version 1.4/' | sed 's/, texmode_independent//' | sed 's/\(\.extern \.const\[1\] .b8 \w\+\)\[\]/\1\[1\]/' | sed 's/const\[.\]/const\[0\]/g' > _ptx2_ZWphdw
GPGPU-Sim PTX: generating ptxinfo using "$CUDA_INSTALL_PATH/bin/ptxas --gpu-name=sm_20 -v _ptx2_ZWphdw --output-file  /dev/null 2> _ptx_Q7qtC2info"
GPGPU-Sim PTX: Kernel '_Z17likelihood_kernelPfS_S_PiS0_S_PhS_S_iiiiiiS0_S_' : regs=27, lmem=0, smem=2048, cmem=156
GPGPU-Sim PTX: Kernel '_Z10sum_kernelPfi' : regs=6, lmem=0, smem=0, cmem=44
GPGPU-Sim PTX: Kernel '_Z24normalize_weights_kernelPfiS_S_S_Pi' : regs=10, lmem=0, smem=8, cmem=88
GPGPU-Sim PTX: Kernel '_Z17find_index_kernelPfS_S_S_S_S_S_i' : regs=12, lmem=0, smem=0, cmem=92
GPGPU-Sim PTX: removing ptxinfo using "rm -f _ptx_Q7qtC2 _ptx2_ZWphdw _ptx_Q7qtC2info"
GPGPU-Sim PTX: loading globals with explicit initializers... 
GPGPU-Sim PTX: finished loading globals (0 bytes total).
GPGPU-Sim PTX: loading constants with explicit initializers...  done.
GPGPU-Sim PTX: __cudaRegisterFunction _Z10sum_kernelPfi : hostFun 0x0x4026b0, fat_cubin_handle = 1
GPGPU-Sim PTX: __cudaRegisterFunction _Z24normalize_weights_kernelPfiS_S_S_Pi : hostFun 0x0x401610, fat_cubin_handle = 1
GPGPU-Sim PTX: __cudaRegisterFunction _Z17find_index_kernelPfS_S_S_S_S_S_i : hostFun 0x0x401730, fat_cubin_handle = 1
GPGPU-Sim PTX: in __cudaRegisterTexture:
GPGPU-Sim PTX:   int dim = 1
GPGPU-Sim PTX:   int norm = 0
GPGPU-Sim PTX:   int ext = 0
GPGPU-Sim PTX:   Execution warning: Not finished implementing "void __cudaRegisterTexture(void**, const textureReference*, const void**, const char*, int, int, int)"
GPGPU-Sim PTX: in __cudaRegisterTexture:
GPGPU-Sim PTX:   int dim = 1
GPGPU-Sim PTX:   int norm = 0
GPGPU-Sim PTX:   int ext = 0
GPGPU-Sim PTX:   Execution warning: Not finished implementing "void __cudaRegisterTexture(void**, const textureReference*, const void**, const char*, int, int, int)"
VIDEO SEQUENCE TOOK 0.031767
TIME TO SEND TO GPU: 0.013823

GPGPU-Sim PTX: cudaLaunch for 0x0x4014b0 (mode=performance simulation) on stream 0
GPGPU-Sim PTX: pushing kernel '_Z17likelihood_kernelPfS_S_PiS0_S_PhS_S_iiiiiiS0_S_' to stream 0, gridDim= (20,1,1) blockDim = (512,1,1) 
kernel '_Z17likelihood_kernelPfS_S_PiS0_S_PhS_S_iiiiiiS0_S_' transfer to GPU hardware scheduler
GPGPU-Sim uArch: Shader 1 bind to kernel 1 '_Z17likelihood_kernelPfS_S_PiS0_S_PhS_S_iiiiiiS0_S_'
GPGPU-Sim uArch: CTA/core = 2, limited by: regs
GPGPU-Sim uArch: core:  1, cta: 0 initialized @(1,0)
GPGPU-Sim uArch: Shader 2 bind to kernel 1 '_Z17likelihood_kernelPfS_S_PiS0_S_PhS_S_iiiiiiS0_S_'
GPGPU-Sim uArch: core:  2, cta: 0 initialized @(1,0)
GPGPU-Sim uArch: Shader 3 bind to kernel 1 '_Z17likelihood_kernelPfS_S_PiS0_S_PhS_S_iiiiiiS0_S_'
GPGPU-Sim uArch: core:  3, cta: 0 initialized @(1,0)
GPGPU-Sim uArch: Shader 4 bind to kernel 1 '_Z17likelihood_kernelPfS_S_PiS0_S_PhS_S_iiiiiiS0_S_'
GPGPU-Sim uArch: core:  4, cta: 0 initialized @(1,0)
GPGPU-Sim uArch: Shader 5 bind to kernel 1 '_Z17likelihood_kernelPfS_S_PiS0_S_PhS_S_iiiiiiS0_S_'
GPGPU-Sim uArch: core:  5, cta: 0 initialized @(1,0)
GPGPU-Sim uArch: Shader 6 bind to kernel 1 '_Z17likelihood_kernelPfS_S_PiS0_S_PhS_S_iiiiiiS0_S_'
GPGPU-Sim uArch: core:  6, cta: 0 initialized @(1,0)
GPGPU-Sim uArch: Shader 7 bind to kernel 1 '_Z17likelihood_kernelPfS_S_PiS0_S_PhS_S_iiiiiiS0_S_'
GPGPU-Sim uArch: core:  7, cta: 0 initialized @(1,0)
GPGPU-Sim uArch: Shader 8 bind to kernel 1 '_Z17likelihood_kernelPfS_S_PiS0_S_PhS_S_iiiiiiS0_S_'
GPGPU-Sim uArch: core:  8, cta: 0 initialized @(1,0)
GPGPU-Sim uArch: Shader 9 bind to kernel 1 '_Z17likelihood_kernelPfS_S_PiS0_S_PhS_S_iiiiiiS0_S_'
GPGPU-Sim uArch: core:  9, cta: 0 initialized @(1,0)
GPGPU-Sim uArch: Shader 10 bind to kernel 1 '_Z17likelihood_kernelPfS_S_PiS0_S_PhS_S_iiiiiiS0_S_'
GPGPU-Sim uArch: core: 10, cta: 0 initialized @(1,0)
GPGPU-Sim uArch: Shader 11 bind to kernel 1 '_Z17likelihood_kernelPfS_S_PiS0_S_PhS_S_iiiiiiS0_S_'
GPGPU-Sim uArch: core: 11, cta: 0 initialized @(1,0)
GPGPU-Sim uArch: Shader 12 bind to kernel 1 '_Z17likelihood_kernelPfS_S_PiS0_S_PhS_S_iiiiiiS0_S_'
GPGPU-Sim uArch: core: 12, cta: 0 initialized @(1,0)
GPGPU-Sim uArch: Shader 13 bind to kernel 1 '_Z17likelihood_kernelPfS_S_PiS0_S_PhS_S_iiiiiiS0_S_'
GPGPU-Sim uArch: core: 13, cta: 0 initialized @(1,0)
GPGPU-Sim uArch: Shader 14 bind to kernel 1 '_Z17likelihood_kernelPfS_S_PiS0_S_PhS_S_iiiiiiS0_S_'
GPGPU-Sim uArch: core: 14, cta: 0 initialized @(1,0)
GPGPU-Sim uArch: Shader 0 bind to kernel 1 '_Z17likelihood_kernelPfS_S_PiS0_S_PhS_S_iiiiiiS0_S_'
GPGPU-Sim uArch: core:  0, cta: 0 initialized @(1,0)
GPGPU-Sim uArch: core:  1, cta: 1 initialized @(2,0)
GPGPU-Sim uArch: core:  2, cta: 1 initialized @(2,0)
GPGPU-Sim uArch: core:  3, cta: 1 initialized @(2,0)
GPGPU-Sim uArch: core:  4, cta: 1 initialized @(2,0)
GPGPU-Sim uArch: core:  5, cta: 1 initialized @(2,0)
GPGPU-Sim uArch: cycles simulated: 500  inst.: 51200 (ipc=102.4) sim_rate=51200 (inst/sec) elapsed = 0:0:00:01 / Tue Mar 22 13:05:02 2016
GPGPU-Sim PTX: 100000 instructions simulated : ctaid=(13,0,0) tid=(351,0,0)
GPGPU-Sim uArch: cycles simulated: 1000  inst.: 112144 (ipc=112.1) sim_rate=56072 (inst/sec) elapsed = 0:0:00:02 / Tue Mar 22 13:05:03 2016
GPGPU-Sim PTX: 200000 instructions simulated : ctaid=(9,0,0) tid=(31,0,0)
GPGPU-Sim PTX: 300000 instructions simulated : ctaid=(14,0,0) tid=(111,0,0)
GPGPU-Sim PTX: 400000 instructions simulated : ctaid=(17,0,0) tid=(175,0,0)
GPGPU-Sim uArch: cycles simulated: 2000  inst.: 411200 (ipc=205.6) sim_rate=137066 (inst/sec) elapsed = 0:0:00:03 / Tue Mar 22 13:05:04 2016
GPGPU-Sim PTX: 500000 instructions simulated : ctaid=(9,0,0) tid=(255,0,0)
GPGPU-Sim PTX: 600000 instructions simulated : ctaid=(17,0,0) tid=(159,0,0)
GPGPU-Sim uArch: cycles simulated: 3000  inst.: 613568 (ipc=204.5) sim_rate=153392 (inst/sec) elapsed = 0:0:00:04 / Tue Mar 22 13:05:05 2016
GPGPU-Sim PTX: 700000 instructions simulated : ctaid=(4,0,0) tid=(191,0,0)
GPGPU-Sim PTX: 800000 instructions simulated : ctaid=(2,0,0) tid=(431,0,0)
GPGPU-Sim PTX: 900000 instructions simulated : ctaid=(11,0,0) tid=(319,0,0)
GPGPU-Sim PTX: 1000000 instructions simulated : ctaid=(1,0,0) tid=(447,0,0)
GPGPU-Sim uArch: cycles simulated: 4000  inst.: 970382 (ipc=242.6) sim_rate=194076 (inst/sec) elapsed = 0:0:00:05 / Tue Mar 22 13:05:06 2016
GPGPU-Sim PTX: 1100000 instructions simulated : ctaid=(11,0,0) tid=(191,0,0)
GPGPU-Sim PTX: 1200000 instructions simulated : ctaid=(0,0,0) tid=(463,0,0)
GPGPU-Sim PTX: 1300000 instructions simulated : ctaid=(9,0,0) tid=(399,0,0)
GPGPU-Sim PTX: 1400000 instructions simulated : ctaid=(14,0,0) tid=(15,0,0)
GPGPU-Sim uArch: cycles simulated: 5500  inst.: 1377252 (ipc=250.4) sim_rate=229542 (inst/sec) elapsed = 0:0:00:06 / Tue Mar 22 13:05:07 2016
GPGPU-Sim PTX: 1500000 instructions simulated : ctaid=(3,0,0) tid=(495,0,0)
GPGPU-Sim PTX: 1600000 instructions simulated : ctaid=(16,0,0) tid=(383,0,0)
GPGPU-Sim PTX: 1700000 instructions simulated : ctaid=(12,0,0) tid=(79,0,0)
GPGPU-Sim uArch: cycles simulated: 6500  inst.: 1716580 (ipc=264.1) sim_rate=245225 (inst/sec) elapsed = 0:0:00:07 / Tue Mar 22 13:05:08 2016
GPGPU-Sim PTX: 1800000 instructions simulated : ctaid=(17,0,0) tid=(303,0,0)
GPGPU-Sim PTX: 1900000 instructions simulated : ctaid=(7,0,0) tid=(495,0,0)
GPGPU-Sim PTX: 2000000 instructions simulated : ctaid=(12,0,0) tid=(351,0,0)
GPGPU-Sim uArch: cycles simulated: 8000  inst.: 2016612 (ipc=252.1) sim_rate=252076 (inst/sec) elapsed = 0:0:00:08 / Tue Mar 22 13:05:09 2016
GPGPU-Sim uArch: cycles simulated: 9500  inst.: 2025364 (ipc=213.2) sim_rate=225040 (inst/sec) elapsed = 0:0:00:09 / Tue Mar 22 13:05:10 2016
GPGPU-Sim PTX: 2100000 instructions simulated : ctaid=(15,0,0) tid=(479,0,0)
GPGPU-Sim uArch: cycles simulated: 11000  inst.: 2056980 (ipc=187.0) sim_rate=205698 (inst/sec) elapsed = 0:0:00:10 / Tue Mar 22 13:05:11 2016
GPGPU-Sim uArch: cycles simulated: 13000  inst.: 2097188 (ipc=161.3) sim_rate=190653 (inst/sec) elapsed = 0:0:00:11 / Tue Mar 22 13:05:12 2016
GPGPU-Sim uArch: cycles simulated: 14500  inst.: 2133220 (ipc=147.1) sim_rate=177768 (inst/sec) elapsed = 0:0:00:12 / Tue Mar 22 13:05:13 2016
GPGPU-Sim PTX: 2200000 instructions simulated : ctaid=(13,0,0) tid=(303,0,0)
GPGPU-Sim uArch: cycles simulated: 16000  inst.: 2194564 (ipc=137.2) sim_rate=168812 (inst/sec) elapsed = 0:0:00:13 / Tue Mar 22 13:05:14 2016
GPGPU-Sim PTX: 2300000 instructions simulated : ctaid=(13,0,0) tid=(399,0,0)
GPGPU-Sim uArch: cycles simulated: 17500  inst.: 2254468 (ipc=128.8) sim_rate=161033 (inst/sec) elapsed = 0:0:00:14 / Tue Mar 22 13:05:15 2016
GPGPU-Sim uArch: cycles simulated: 19000  inst.: 2320164 (ipc=122.1) sim_rate=154677 (inst/sec) elapsed = 0:0:00:15 / Tue Mar 22 13:05:16 2016
GPGPU-Sim PTX: 2400000 instructions simulated : ctaid=(8,0,0) tid=(431,0,0)
GPGPU-Sim uArch: cycles simulated: 20500  inst.: 2418308 (ipc=118.0) sim_rate=151144 (inst/sec) elapsed = 0:0:00:16 / Tue Mar 22 13:05:17 2016
GPGPU-Sim PTX: 2500000 instructions simulated : ctaid=(13,0,0) tid=(79,0,0)
GPGPU-Sim uArch: cycles simulated: 21500  inst.: 2470628 (ipc=114.9) sim_rate=145331 (inst/sec) elapsed = 0:0:00:17 / Tue Mar 22 13:05:18 2016
GPGPU-Sim PTX: 2600000 instructions simulated : ctaid=(9,0,0) tid=(143,0,0)
GPGPU-Sim uArch: cycles simulated: 23000  inst.: 2562756 (ipc=111.4) sim_rate=142375 (inst/sec) elapsed = 0:0:00:18 / Tue Mar 22 13:05:19 2016
GPGPU-Sim PTX: 2700000 instructions simulated : ctaid=(12,0,0) tid=(367,0,0)
GPGPU-Sim uArch: cycles simulated: 24500  inst.: 2700004 (ipc=110.2) sim_rate=142105 (inst/sec) elapsed = 0:0:00:19 / Tue Mar 22 13:05:20 2016
GPGPU-Sim PTX: 2800000 instructions simulated : ctaid=(0,0,0) tid=(47,0,0)
GPGPU-Sim uArch: cycles simulated: 25500  inst.: 2776612 (ipc=108.9) sim_rate=138830 (inst/sec) elapsed = 0:0:00:20 / Tue Mar 22 13:05:21 2016
GPGPU-Sim PTX: 2900000 instructions simulated : ctaid=(5,0,0) tid=(143,0,0)
GPGPU-Sim uArch: cycles simulated: 27000  inst.: 2901092 (ipc=107.4) sim_rate=138147 (inst/sec) elapsed = 0:0:00:21 / Tue Mar 22 13:05:22 2016
GPGPU-Sim PTX: 3000000 instructions simulated : ctaid=(5,0,0) tid=(399,0,0)
GPGPU-Sim uArch: cycles simulated: 28500  inst.: 2991204 (ipc=105.0) sim_rate=135963 (inst/sec) elapsed = 0:0:00:22 / Tue Mar 22 13:05:23 2016
GPGPU-Sim PTX: 3100000 instructions simulated : ctaid=(11,0,0) tid=(495,0,0)
GPGPU-Sim uArch: cycles simulated: 29500  inst.: 3054340 (ipc=103.5) sim_rate=132797 (inst/sec) elapsed = 0:0:00:23 / Tue Mar 22 13:05:24 2016
GPGPU-Sim uArch: cycles simulated: 31000  inst.: 3124836 (ipc=100.8) sim_rate=130201 (inst/sec) elapsed = 0:0:00:24 / Tue Mar 22 13:05:25 2016
GPGPU-Sim PTX: 3200000 instructions simulated : ctaid=(2,0,0) tid=(367,0,0)
GPGPU-Sim uArch: cycles simulated: 32500  inst.: 3242308 (ipc=99.8) sim_rate=129692 (inst/sec) elapsed = 0:0:00:25 / Tue Mar 22 13:05:26 2016
GPGPU-Sim PTX: 3300000 instructions simulated : ctaid=(10,0,0) tid=(271,0,0)
GPGPU-Sim uArch: cycles simulated: 34000  inst.: 3323268 (ipc=97.7) sim_rate=127818 (inst/sec) elapsed = 0:0:00:26 / Tue Mar 22 13:05:27 2016
GPGPU-Sim PTX: 3400000 instructions simulated : ctaid=(5,0,0) tid=(207,0,0)
GPGPU-Sim uArch: cycles simulated: 35000  inst.: 3410820 (ipc=97.5) sim_rate=126326 (inst/sec) elapsed = 0:0:00:27 / Tue Mar 22 13:05:28 2016
GPGPU-Sim PTX: 3500000 instructions simulated : ctaid=(5,0,0) tid=(79,0,0)
GPGPU-Sim uArch: cycles simulated: 36500  inst.: 3533316 (ipc=96.8) sim_rate=126189 (inst/sec) elapsed = 0:0:00:28 / Tue Mar 22 13:05:29 2016
GPGPU-Sim PTX: 3600000 instructions simulated : ctaid=(13,0,0) tid=(175,0,0)
GPGPU-Sim PTX: 3700000 instructions simulated : ctaid=(4,0,0) tid=(47,0,0)
GPGPU-Sim uArch: cycles simulated: 38000  inst.: 3649348 (ipc=96.0) sim_rate=125839 (inst/sec) elapsed = 0:0:00:29 / Tue Mar 22 13:05:30 2016
GPGPU-Sim uArch: cycles simulated: 39000  inst.: 3732004 (ipc=95.7) sim_rate=124400 (inst/sec) elapsed = 0:0:00:30 / Tue Mar 22 13:05:31 2016
GPGPU-Sim PTX: 3800000 instructions simulated : ctaid=(10,0,0) tid=(239,0,0)
GPGPU-Sim PTX: 3900000 instructions simulated : ctaid=(11,0,0) tid=(335,0,0)
GPGPU-Sim uArch: cycles simulated: 40500  inst.: 3856772 (ipc=95.2) sim_rate=124412 (inst/sec) elapsed = 0:0:00:31 / Tue Mar 22 13:05:32 2016
GPGPU-Sim PTX: 4000000 instructions simulated : ctaid=(12,0,0) tid=(495,0,0)
GPGPU-Sim uArch: cycles simulated: 41500  inst.: 3955716 (ipc=95.3) sim_rate=123616 (inst/sec) elapsed = 0:0:00:32 / Tue Mar 22 13:05:33 2016
GPGPU-Sim PTX: 4100000 instructions simulated : ctaid=(1,0,0) tid=(239,0,0)
GPGPU-Sim uArch: cycles simulated: 43000  inst.: 4146148 (ipc=96.4) sim_rate=125640 (inst/sec) elapsed = 0:0:00:33 / Tue Mar 22 13:05:34 2016
GPGPU-Sim PTX: 4200000 instructions simulated : ctaid=(10,0,0) tid=(367,0,0)
GPGPU-Sim uArch: cycles simulated: 44000  inst.: 4221476 (ipc=95.9) sim_rate=124161 (inst/sec) elapsed = 0:0:00:34 / Tue Mar 22 13:05:35 2016
GPGPU-Sim PTX: 4300000 instructions simulated : ctaid=(10,0,0) tid=(239,0,0)
GPGPU-Sim uArch: cycles simulated: 45500  inst.: 4335300 (ipc=95.3) sim_rate=123865 (inst/sec) elapsed = 0:0:00:35 / Tue Mar 22 13:05:36 2016
GPGPU-Sim PTX: 4400000 instructions simulated : ctaid=(6,0,0) tid=(239,0,0)
GPGPU-Sim PTX: 4500000 instructions simulated : ctaid=(2,0,0) tid=(207,0,0)
GPGPU-Sim uArch: cycles simulated: 47000  inst.: 4464068 (ipc=95.0) sim_rate=124001 (inst/sec) elapsed = 0:0:00:36 / Tue Mar 22 13:05:37 2016
GPGPU-Sim uArch: cycles simulated: 48000  inst.: 4521476 (ipc=94.2) sim_rate=122202 (inst/sec) elapsed = 0:0:00:37 / Tue Mar 22 13:05:38 2016
GPGPU-Sim PTX: 4600000 instructions simulated : ctaid=(5,0,0) tid=(95,0,0)
GPGPU-Sim uArch: cycles simulated: 49500  inst.: 4598932 (ipc=92.9) sim_rate=121024 (inst/sec) elapsed = 0:0:00:38 / Tue Mar 22 13:05:39 2016
GPGPU-Sim PTX: 4700000 instructions simulated : ctaid=(9,0,0) tid=(351,0,0)
GPGPU-Sim uArch: cycles simulated: 51000  inst.: 4678644 (ipc=91.7) sim_rate=119965 (inst/sec) elapsed = 0:0:00:39 / Tue Mar 22 13:05:40 2016
GPGPU-Sim PTX: 4800000 instructions simulated : ctaid=(10,0,0) tid=(287,0,0)
GPGPU-Sim uArch: cycles simulated: 52500  inst.: 4805556 (ipc=91.5) sim_rate=120138 (inst/sec) elapsed = 0:0:00:40 / Tue Mar 22 13:05:41 2016
GPGPU-Sim PTX: 4900000 instructions simulated : ctaid=(12,0,0) tid=(31,0,0)
GPGPU-Sim PTX: 5000000 instructions simulated : ctaid=(8,0,0) tid=(127,0,0)
GPGPU-Sim uArch: cycles simulated: 54000  inst.: 4949492 (ipc=91.7) sim_rate=120719 (inst/sec) elapsed = 0:0:00:41 / Tue Mar 22 13:05:42 2016
GPGPU-Sim uArch: cycles simulated: 55000  inst.: 5020692 (ipc=91.3) sim_rate=119540 (inst/sec) elapsed = 0:0:00:42 / Tue Mar 22 13:05:43 2016
GPGPU-Sim PTX: 5100000 instructions simulated : ctaid=(6,0,0) tid=(31,0,0)
GPGPU-Sim uArch: cycles simulated: 56500  inst.: 5102324 (ipc=90.3) sim_rate=118658 (inst/sec) elapsed = 0:0:00:43 / Tue Mar 22 13:05:44 2016
GPGPU-Sim PTX: 5200000 instructions simulated : ctaid=(9,0,0) tid=(319,0,0)
GPGPU-Sim uArch: cycles simulated: 58000  inst.: 5196660 (ipc=89.6) sim_rate=118105 (inst/sec) elapsed = 0:0:00:44 / Tue Mar 22 13:05:45 2016
GPGPU-Sim PTX: 5300000 instructions simulated : ctaid=(16,0,0) tid=(127,0,0)
GPGPU-Sim uArch: cycles simulated: 59500  inst.: 5307956 (ipc=89.2) sim_rate=117954 (inst/sec) elapsed = 0:0:00:45 / Tue Mar 22 13:05:46 2016
GPGPU-Sim PTX: 5400000 instructions simulated : ctaid=(10,0,0) tid=(223,0,0)
GPGPU-Sim uArch: cycles simulated: 61000  inst.: 5391924 (ipc=88.4) sim_rate=117215 (inst/sec) elapsed = 0:0:00:46 / Tue Mar 22 13:05:47 2016
GPGPU-Sim PTX: 5500000 instructions simulated : ctaid=(4,0,0) tid=(191,0,0)
GPGPU-Sim uArch: cycles simulated: 62000  inst.: 5469428 (ipc=88.2) sim_rate=116370 (inst/sec) elapsed = 0:0:00:47 / Tue Mar 22 13:05:48 2016
GPGPU-Sim PTX: 5600000 instructions simulated : ctaid=(11,0,0) tid=(127,0,0)
GPGPU-Sim uArch: cycles simulated: 63500  inst.: 5589396 (ipc=88.0) sim_rate=116445 (inst/sec) elapsed = 0:0:00:48 / Tue Mar 22 13:05:49 2016
GPGPU-Sim PTX: 5700000 instructions simulated : ctaid=(6,0,0) tid=(223,0,0)
GPGPU-Sim uArch: cycles simulated: 64500  inst.: 5677844 (ipc=88.0) sim_rate=115874 (inst/sec) elapsed = 0:0:00:49 / Tue Mar 22 13:05:50 2016
GPGPU-Sim PTX: 5800000 instructions simulated : ctaid=(7,0,0) tid=(223,0,0)
GPGPU-Sim uArch: cycles simulated: 65500  inst.: 5773364 (ipc=88.1) sim_rate=115467 (inst/sec) elapsed = 0:0:00:50 / Tue Mar 22 13:05:51 2016
GPGPU-Sim PTX: 5900000 instructions simulated : ctaid=(5,0,0) tid=(63,0,0)
GPGPU-Sim uArch: cycles simulated: 67000  inst.: 5866452 (ipc=87.6) sim_rate=115028 (inst/sec) elapsed = 0:0:00:51 / Tue Mar 22 13:05:52 2016
GPGPU-Sim PTX: 6000000 instructions simulated : ctaid=(14,0,0) tid=(223,0,0)
GPGPU-Sim uArch: cycles simulated: 68000  inst.: 5950324 (ipc=87.5) sim_rate=114429 (inst/sec) elapsed = 0:0:00:52 / Tue Mar 22 13:05:53 2016
GPGPU-Sim uArch: cycles simulated: 69000  inst.: 6031668 (ipc=87.4) sim_rate=113805 (inst/sec) elapsed = 0:0:00:53 / Tue Mar 22 13:05:54 2016
GPGPU-Sim PTX: 6100000 instructions simulated : ctaid=(18,0,0) tid=(383,0,0)
GPGPU-Sim PTX: 6200000 instructions simulated : ctaid=(6,0,0) tid=(31,0,0)
GPGPU-Sim uArch: cycles simulated: 70500  inst.: 6164148 (ipc=87.4) sim_rate=114150 (inst/sec) elapsed = 0:0:00:54 / Tue Mar 22 13:05:55 2016
GPGPU-Sim uArch: cycles simulated: 71500  inst.: 6245140 (ipc=87.3) sim_rate=113548 (inst/sec) elapsed = 0:0:00:55 / Tue Mar 22 13:05:56 2016
GPGPU-Sim PTX: 6300000 instructions simulated : ctaid=(16,0,0) tid=(447,0,0)
GPGPU-Sim PTX: 6400000 instructions simulated : ctaid=(3,0,0) tid=(95,0,0)
GPGPU-Sim uArch: cycles simulated: 73000  inst.: 6350132 (ipc=87.0) sim_rate=113395 (inst/sec) elapsed = 0:0:00:56 / Tue Mar 22 13:05:57 2016
GPGPU-Sim uArch: cycles simulated: 74000  inst.: 6445908 (ipc=87.1) sim_rate=113086 (inst/sec) elapsed = 0:0:00:57 / Tue Mar 22 13:05:58 2016
GPGPU-Sim PTX: 6500000 instructions simulated : ctaid=(10,0,0) tid=(447,0,0)
GPGPU-Sim uArch: cycles simulated: 75000  inst.: 6512244 (ipc=86.8) sim_rate=112280 (inst/sec) elapsed = 0:0:00:58 / Tue Mar 22 13:05:59 2016
GPGPU-Sim PTX: 6600000 instructions simulated : ctaid=(7,0,0) tid=(255,0,0)
GPGPU-Sim PTX: 6700000 instructions simulated : ctaid=(14,0,0) tid=(415,0,0)
GPGPU-Sim uArch: cycles simulated: 77000  inst.: 6664532 (ipc=86.6) sim_rate=112958 (inst/sec) elapsed = 0:0:00:59 / Tue Mar 22 13:06:00 2016
GPGPU-Sim uArch: cycles simulated: 78500  inst.: 6743732 (ipc=85.9) sim_rate=112395 (inst/sec) elapsed = 0:0:01:00 / Tue Mar 22 13:06:01 2016
GPGPU-Sim PTX: 6800000 instructions simulated : ctaid=(5,0,0) tid=(351,0,0)
GPGPU-Sim uArch: cycles simulated: 80000  inst.: 6846644 (ipc=85.6) sim_rate=112240 (inst/sec) elapsed = 0:0:01:01 / Tue Mar 22 13:06:02 2016
GPGPU-Sim PTX: 6900000 instructions simulated : ctaid=(1,0,0) tid=(31,0,0)
GPGPU-Sim uArch: cycles simulated: 81000  inst.: 6932084 (ipc=85.6) sim_rate=111807 (inst/sec) elapsed = 0:0:01:02 / Tue Mar 22 13:06:03 2016
GPGPU-Sim PTX: 7000000 instructions simulated : ctaid=(5,0,0) tid=(31,0,0)
GPGPU-Sim uArch: cycles simulated: 82000  inst.: 7013300 (ipc=85.5) sim_rate=111322 (inst/sec) elapsed = 0:0:01:03 / Tue Mar 22 13:06:04 2016
GPGPU-Sim PTX: 7100000 instructions simulated : ctaid=(12,0,0) tid=(95,0,0)
GPGPU-Sim uArch: cycles simulated: 83500  inst.: 7119380 (ipc=85.3) sim_rate=111240 (inst/sec) elapsed = 0:0:01:04 / Tue Mar 22 13:06:05 2016
GPGPU-Sim PTX: 7200000 instructions simulated : ctaid=(0,0,0) tid=(31,0,0)
GPGPU-Sim uArch: cycles simulated: 85000  inst.: 7242836 (ipc=85.2) sim_rate=111428 (inst/sec) elapsed = 0:0:01:05 / Tue Mar 22 13:06:06 2016
GPGPU-Sim PTX: 7300000 instructions simulated : ctaid=(7,0,0) tid=(127,0,0)
GPGPU-Sim uArch: cycles simulated: 86000  inst.: 7324116 (ipc=85.2) sim_rate=110971 (inst/sec) elapsed = 0:0:01:06 / Tue Mar 22 13:06:07 2016
GPGPU-Sim PTX: 7400000 instructions simulated : ctaid=(6,0,0) tid=(127,0,0)
GPGPU-Sim PTX: 7500000 instructions simulated : ctaid=(11,0,0) tid=(31,0,0)
GPGPU-Sim uArch: cycles simulated: 87500  inst.: 7483476 (ipc=85.5) sim_rate=111693 (inst/sec) elapsed = 0:0:01:07 / Tue Mar 22 13:06:08 2016
GPGPU-Sim PTX: 7600000 instructions simulated : ctaid=(6,0,0) tid=(159,0,0)
GPGPU-Sim uArch: cycles simulated: 89000  inst.: 7599956 (ipc=85.4) sim_rate=111764 (inst/sec) elapsed = 0:0:01:08 / Tue Mar 22 13:06:09 2016
GPGPU-Sim PTX: 7700000 instructions simulated : ctaid=(6,0,0) tid=(127,0,0)
GPGPU-Sim uArch: cycles simulated: 90500  inst.: 7702196 (ipc=85.1) sim_rate=111626 (inst/sec) elapsed = 0:0:01:09 / Tue Mar 22 13:06:10 2016
GPGPU-Sim PTX: 7800000 instructions simulated : ctaid=(10,0,0) tid=(159,0,0)
GPGPU-Sim uArch: cycles simulated: 92000  inst.: 7810132 (ipc=84.9) sim_rate=111573 (inst/sec) elapsed = 0:0:01:10 / Tue Mar 22 13:06:11 2016
GPGPU-Sim PTX: 7900000 instructions simulated : ctaid=(2,0,0) tid=(63,0,0)
GPGPU-Sim uArch: cycles simulated: 93000  inst.: 7925588 (ipc=85.2) sim_rate=111628 (inst/sec) elapsed = 0:0:01:11 / Tue Mar 22 13:06:12 2016
GPGPU-Sim PTX: 8000000 instructions simulated : ctaid=(7,0,0) tid=(287,0,0)
GPGPU-Sim uArch: cycles simulated: 94500  inst.: 8003092 (ipc=84.7) sim_rate=111154 (inst/sec) elapsed = 0:0:01:12 / Tue Mar 22 13:06:13 2016
GPGPU-Sim PTX: 8100000 instructions simulated : ctaid=(12,0,0) tid=(63,0,0)
GPGPU-Sim uArch: cycles simulated: 96000  inst.: 8117748 (ipc=84.6) sim_rate=111202 (inst/sec) elapsed = 0:0:01:13 / Tue Mar 22 13:06:14 2016
GPGPU-Sim PTX: 8200000 instructions simulated : ctaid=(2,0,0) tid=(31,0,0)
GPGPU-Sim uArch: cycles simulated: 97000  inst.: 8233364 (ipc=84.9) sim_rate=111261 (inst/sec) elapsed = 0:0:01:14 / Tue Mar 22 13:06:15 2016
GPGPU-Sim PTX: 8300000 instructions simulated : ctaid=(1,0,0) tid=(415,0,0)
GPGPU-Sim PTX: 8400000 instructions simulated : ctaid=(10,0,0) tid=(63,0,0)
GPGPU-Sim uArch: cycles simulated: 98500  inst.: 8374548 (ipc=85.0) sim_rate=111660 (inst/sec) elapsed = 0:0:01:15 / Tue Mar 22 13:06:16 2016
GPGPU-Sim PTX: 8500000 instructions simulated : ctaid=(7,0,0) tid=(31,0,0)
GPGPU-Sim uArch: cycles simulated: 100000  inst.: 8516756 (ipc=85.2) sim_rate=112062 (inst/sec) elapsed = 0:0:01:16 / Tue Mar 22 13:06:17 2016
GPGPU-Sim PTX: 8600000 instructions simulated : ctaid=(4,0,0) tid=(415,0,0)
GPGPU-Sim uArch: cycles simulated: 101000  inst.: 8565236 (ipc=84.8) sim_rate=111236 (inst/sec) elapsed = 0:0:01:17 / Tue Mar 22 13:06:18 2016
GPGPU-Sim PTX: 8700000 instructions simulated : ctaid=(9,0,0) tid=(31,0,0)
GPGPU-Sim uArch: cycles simulated: 102500  inst.: 8687636 (ipc=84.8) sim_rate=111379 (inst/sec) elapsed = 0:0:01:18 / Tue Mar 22 13:06:19 2016
GPGPU-Sim PTX: 8800000 instructions simulated : ctaid=(11,0,0) tid=(511,0,0)
GPGPU-Sim uArch: cycles simulated: 103500  inst.: 8761108 (ipc=84.6) sim_rate=110900 (inst/sec) elapsed = 0:0:01:19 / Tue Mar 22 13:06:20 2016
GPGPU-Sim PTX: 8900000 instructions simulated : ctaid=(14,0,0) tid=(127,0,0)
GPGPU-Sim uArch: cycles simulated: 105000  inst.: 8876020 (ipc=84.5) sim_rate=110950 (inst/sec) elapsed = 0:0:01:20 / Tue Mar 22 13:06:21 2016
GPGPU-Sim PTX: 9000000 instructions simulated : ctaid=(3,0,0) tid=(351,0,0)
GPGPU-Sim uArch: cycles simulated: 106000  inst.: 8970868 (ipc=84.6) sim_rate=110751 (inst/sec) elapsed = 0:0:01:21 / Tue Mar 22 13:06:22 2016
GPGPU-Sim uArch: cycles simulated: 107000  inst.: 9029812 (ipc=84.4) sim_rate=110119 (inst/sec) elapsed = 0:0:01:22 / Tue Mar 22 13:06:23 2016
GPGPU-Sim PTX: 9100000 instructions simulated : ctaid=(4,0,0) tid=(223,0,0)
GPGPU-Sim uArch: cycles simulated: 108000  inst.: 9119732 (ipc=84.4) sim_rate=109876 (inst/sec) elapsed = 0:0:01:23 / Tue Mar 22 13:06:24 2016
GPGPU-Sim PTX: 9200000 instructions simulated : ctaid=(1,0,0) tid=(127,0,0)
GPGPU-Sim uArch: cycles simulated: 109500  inst.: 9213044 (ipc=84.1) sim_rate=109679 (inst/sec) elapsed = 0:0:01:24 / Tue Mar 22 13:06:25 2016
GPGPU-Sim PTX: 9300000 instructions simulated : ctaid=(0,0,0) tid=(319,0,0)
GPGPU-Sim PTX: 9400000 instructions simulated : ctaid=(10,0,0) tid=(255,0,0)
GPGPU-Sim uArch: cycles simulated: 111000  inst.: 9353716 (ipc=84.3) sim_rate=110043 (inst/sec) elapsed = 0:0:01:25 / Tue Mar 22 13:06:26 2016
GPGPU-Sim uArch: cycles simulated: 112000  inst.: 9420564 (ipc=84.1) sim_rate=109541 (inst/sec) elapsed = 0:0:01:26 / Tue Mar 22 13:06:27 2016
GPGPU-Sim PTX: 9500000 instructions simulated : ctaid=(9,0,0) tid=(351,0,0)
GPGPU-Sim PTX: 9600000 instructions simulated : ctaid=(3,0,0) tid=(127,0,0)
GPGPU-Sim uArch: cycles simulated: 113500  inst.: 9560148 (ipc=84.2) sim_rate=109886 (inst/sec) elapsed = 0:0:01:27 / Tue Mar 22 13:06:28 2016
GPGPU-Sim uArch: cycles simulated: 114500  inst.: 9610484 (ipc=83.9) sim_rate=109210 (inst/sec) elapsed = 0:0:01:28 / Tue Mar 22 13:06:29 2016
GPGPU-Sim PTX: 9700000 instructions simulated : ctaid=(0,0,0) tid=(415,0,0)
GPGPU-Sim uArch: cycles simulated: 115500  inst.: 9704052 (ipc=84.0) sim_rate=109034 (inst/sec) elapsed = 0:0:01:29 / Tue Mar 22 13:06:30 2016
GPGPU-Sim PTX: 9800000 instructions simulated : ctaid=(8,0,0) tid=(287,0,0)
GPGPU-Sim uArch: cycles simulated: 117000  inst.: 9819156 (ipc=83.9) sim_rate=109101 (inst/sec) elapsed = 0:0:01:30 / Tue Mar 22 13:06:31 2016
GPGPU-Sim PTX: 9900000 instructions simulated : ctaid=(11,0,0) tid=(191,0,0)
GPGPU-Sim uArch: cycles simulated: 118000  inst.: 9879988 (ipc=83.7) sim_rate=108571 (inst/sec) elapsed = 0:0:01:31 / Tue Mar 22 13:06:32 2016
GPGPU-Sim PTX: 10000000 instructions simulated : ctaid=(4,0,0) tid=(287,0,0)
GPGPU-Sim uArch: cycles simulated: 119000  inst.: 9992756 (ipc=84.0) sim_rate=108616 (inst/sec) elapsed = 0:0:01:32 / Tue Mar 22 13:06:33 2016
GPGPU-Sim PTX: 10100000 instructions simulated : ctaid=(3,0,0) tid=(31,0,0)
GPGPU-Sim uArch: cycles simulated: 120500  inst.: 10144436 (ipc=84.2) sim_rate=109079 (inst/sec) elapsed = 0:0:01:33 / Tue Mar 22 13:06:34 2016
GPGPU-Sim PTX: 10200000 instructions simulated : ctaid=(12,0,0) tid=(159,0,0)
GPGPU-Sim uArch: cycles simulated: 121500  inst.: 10240532 (ipc=84.3) sim_rate=108941 (inst/sec) elapsed = 0:0:01:34 / Tue Mar 22 13:06:35 2016
GPGPU-Sim PTX: 10300000 instructions simulated : ctaid=(13,0,0) tid=(383,0,0)
GPGPU-Sim uArch: cycles simulated: 122500  inst.: 10289620 (ipc=84.0) sim_rate=108311 (inst/sec) elapsed = 0:0:01:35 / Tue Mar 22 13:06:36 2016
GPGPU-Sim PTX: 10400000 instructions simulated : ctaid=(7,0,0) tid=(159,0,0)
GPGPU-Sim uArch: cycles simulated: 124000  inst.: 10416564 (ipc=84.0) sim_rate=108505 (inst/sec) elapsed = 0:0:01:36 / Tue Mar 22 13:06:37 2016
GPGPU-Sim PTX: 10500000 instructions simulated : ctaid=(3,0,0) tid=(255,0,0)
GPGPU-Sim uArch: cycles simulated: 125000  inst.: 10490132 (ipc=83.9) sim_rate=108145 (inst/sec) elapsed = 0:0:01:37 / Tue Mar 22 13:06:38 2016
GPGPU-Sim PTX: 10600000 instructions simulated : ctaid=(14,0,0) tid=(127,0,0)
GPGPU-Sim uArch: cycles simulated: 126500  inst.: 10597812 (ipc=83.8) sim_rate=108140 (inst/sec) elapsed = 0:0:01:38 / Tue Mar 22 13:06:39 2016
GPGPU-Sim PTX: 10700000 instructions simulated : ctaid=(11,0,0) tid=(31,0,0)
GPGPU-Sim uArch: cycles simulated: 127500  inst.: 10703028 (ipc=83.9) sim_rate=108111 (inst/sec) elapsed = 0:0:01:39 / Tue Mar 22 13:06:40 2016
GPGPU-Sim PTX: 10800000 instructions simulated : ctaid=(4,0,0) tid=(415,0,0)
GPGPU-Sim uArch: cycles simulated: 128500  inst.: 10777716 (ipc=83.9) sim_rate=107777 (inst/sec) elapsed = 0:0:01:40 / Tue Mar 22 13:06:41 2016
GPGPU-Sim uArch: cycles simulated: 130000  inst.: 10843220 (ipc=83.4) sim_rate=107358 (inst/sec) elapsed = 0:0:01:41 / Tue Mar 22 13:06:42 2016
GPGPU-Sim PTX: 10900000 instructions simulated : ctaid=(8,0,0) tid=(255,0,0)
GPGPU-Sim PTX: 11000000 instructions simulated : ctaid=(5,0,0) tid=(95,0,0)
GPGPU-Sim uArch: cycles simulated: 131500  inst.: 10992916 (ipc=83.6) sim_rate=107773 (inst/sec) elapsed = 0:0:01:42 / Tue Mar 22 13:06:43 2016
GPGPU-Sim PTX: 11100000 instructions simulated : ctaid=(13,0,0) tid=(287,0,0)
GPGPU-Sim uArch: cycles simulated: 133000  inst.: 11137684 (ipc=83.7) sim_rate=108132 (inst/sec) elapsed = 0:0:01:43 / Tue Mar 22 13:06:44 2016
GPGPU-Sim PTX: 11200000 instructions simulated : ctaid=(9,0,0) tid=(447,0,0)
GPGPU-Sim PTX: 11300000 instructions simulated : ctaid=(1,0,0) tid=(223,0,0)
GPGPU-Sim uArch: cycles simulated: 134500  inst.: 11266644 (ipc=83.8) sim_rate=108333 (inst/sec) elapsed = 0:0:01:44 / Tue Mar 22 13:06:45 2016
GPGPU-Sim PTX: 11400000 instructions simulated : ctaid=(8,0,0) tid=(287,0,0)
GPGPU-Sim uArch: cycles simulated: 135500  inst.: 11351636 (ipc=83.8) sim_rate=108110 (inst/sec) elapsed = 0:0:01:45 / Tue Mar 22 13:06:46 2016
GPGPU-Sim PTX: 11500000 instructions simulated : ctaid=(10,0,0) tid=(255,0,0)
GPGPU-Sim uArch: cycles simulated: 137000  inst.: 11489812 (ipc=83.9) sim_rate=108394 (inst/sec) elapsed = 0:0:01:46 / Tue Mar 22 13:06:47 2016
GPGPU-Sim PTX: 11600000 instructions simulated : ctaid=(7,0,0) tid=(95,0,0)
GPGPU-Sim uArch: cycles simulated: 138000  inst.: 11558964 (ipc=83.8) sim_rate=108027 (inst/sec) elapsed = 0:0:01:47 / Tue Mar 22 13:06:48 2016
GPGPU-Sim PTX: 11700000 instructions simulated : ctaid=(6,0,0) tid=(287,0,0)
GPGPU-Sim uArch: cycles simulated: 139500  inst.: 11673652 (ipc=83.7) sim_rate=108089 (inst/sec) elapsed = 0:0:01:48 / Tue Mar 22 13:06:49 2016
GPGPU-Sim PTX: 11800000 instructions simulated : ctaid=(7,0,0) tid=(415,0,0)
GPGPU-Sim uArch: cycles simulated: 140500  inst.: 11746804 (ipc=83.6) sim_rate=107768 (inst/sec) elapsed = 0:0:01:49 / Tue Mar 22 13:06:50 2016
GPGPU-Sim PTX: 11900000 instructions simulated : ctaid=(7,0,0) tid=(303,0,0)
GPGPU-Sim uArch: cycles simulated: 142000  inst.: 11855364 (ipc=83.5) sim_rate=107776 (inst/sec) elapsed = 0:0:01:50 / Tue Mar 22 13:06:51 2016
GPGPU-Sim uArch: cycles simulated: 143000  inst.: 11923012 (ipc=83.4) sim_rate=107414 (inst/sec) elapsed = 0:0:01:51 / Tue Mar 22 13:06:52 2016
GPGPU-Sim PTX: 12000000 instructions simulated : ctaid=(14,0,0) tid=(271,0,0)
GPGPU-Sim PTX: 12100000 instructions simulated : ctaid=(8,0,0) tid=(271,0,0)
GPGPU-Sim uArch: cycles simulated: 144500  inst.: 12086340 (ipc=83.6) sim_rate=107913 (inst/sec) elapsed = 0:0:01:52 / Tue Mar 22 13:06:53 2016
GPGPU-Sim PTX: 12200000 instructions simulated : ctaid=(10,0,0) tid=(175,0,0)
GPGPU-Sim uArch: cycles simulated: 145500  inst.: 12155460 (ipc=83.5) sim_rate=107570 (inst/sec) elapsed = 0:0:01:53 / Tue Mar 22 13:06:54 2016
GPGPU-Sim uArch: cycles simulated: 146500  inst.: 12208196 (ipc=83.3) sim_rate=107089 (inst/sec) elapsed = 0:0:01:54 / Tue Mar 22 13:06:55 2016
GPGPU-Sim PTX: 12300000 instructions simulated : ctaid=(0,0,0) tid=(15,0,0)
GPGPU-Sim uArch: cycles simulated: 148000  inst.: 12300644 (ipc=83.1) sim_rate=106962 (inst/sec) elapsed = 0:0:01:55 / Tue Mar 22 13:06:56 2016
GPGPU-Sim PTX: 12400000 instructions simulated : ctaid=(10,0,0) tid=(79,0,0)
GPGPU-Sim uArch: cycles simulated: 149500  inst.: 12396900 (ipc=82.9) sim_rate=106869 (inst/sec) elapsed = 0:0:01:56 / Tue Mar 22 13:06:57 2016
GPGPU-Sim PTX: 12500000 instructions simulated : ctaid=(14,0,0) tid=(15,0,0)
GPGPU-Sim uArch: cycles simulated: 150500  inst.: 12471652 (ipc=82.9) sim_rate=106595 (inst/sec) elapsed = 0:0:01:57 / Tue Mar 22 13:06:58 2016
GPGPU-Sim PTX: 12600000 instructions simulated : ctaid=(15,0,0) tid=(15,0,0)
GPGPU-Sim uArch: cycles simulated: 151500  inst.: 12572676 (ipc=83.0) sim_rate=106548 (inst/sec) elapsed = 0:0:01:58 / Tue Mar 22 13:06:59 2016
GPGPU-Sim PTX: 12700000 instructions simulated : ctaid=(12,0,0) tid=(367,0,0)
GPGPU-Sim uArch: cycles simulated: 153000  inst.: 12684836 (ipc=82.9) sim_rate=106595 (inst/sec) elapsed = 0:0:01:59 / Tue Mar 22 13:07:00 2016
GPGPU-Sim PTX: 12800000 instructions simulated : ctaid=(11,0,0) tid=(143,0,0)
GPGPU-Sim uArch: cycles simulated: 154000  inst.: 12760356 (ipc=82.9) sim_rate=106336 (inst/sec) elapsed = 0:0:02:00 / Tue Mar 22 13:07:01 2016
GPGPU-Sim PTX: 12900000 instructions simulated : ctaid=(10,0,0) tid=(239,0,0)
GPGPU-Sim uArch: cycles simulated: 155500  inst.: 12862340 (ipc=82.7) sim_rate=106300 (inst/sec) elapsed = 0:0:02:01 / Tue Mar 22 13:07:02 2016
GPGPU-Sim PTX: 13000000 instructions simulated : ctaid=(5,0,0) tid=(143,0,0)
GPGPU-Sim uArch: cycles simulated: 157000  inst.: 12971140 (ipc=82.6) sim_rate=106320 (inst/sec) elapsed = 0:0:02:02 / Tue Mar 22 13:07:03 2016
GPGPU-Sim PTX: 13100000 instructions simulated : ctaid=(19,0,0) tid=(111,0,0)
GPGPU-Sim uArch: cycles simulated: 158500  inst.: 13056708 (ipc=82.4) sim_rate=106152 (inst/sec) elapsed = 0:0:02:03 / Tue Mar 22 13:07:04 2016
GPGPU-Sim PTX: 13200000 instructions simulated : ctaid=(14,0,0) tid=(207,0,0)
GPGPU-Sim uArch: cycles simulated: 159500  inst.: 13147492 (ipc=82.4) sim_rate=106028 (inst/sec) elapsed = 0:0:02:04 / Tue Mar 22 13:07:05 2016
GPGPU-Sim uArch: cycles simulated: 160500  inst.: 13223716 (ipc=82.4) sim_rate=105789 (inst/sec) elapsed = 0:0:02:05 / Tue Mar 22 13:07:06 2016
GPGPU-Sim PTX: 13300000 instructions simulated : ctaid=(5,0,0) tid=(79,0,0)
GPGPU-Sim PTX: 13400000 instructions simulated : ctaid=(3,0,0) tid=(15,0,0)
GPGPU-Sim uArch: cycles simulated: 162000  inst.: 13358852 (ipc=82.5) sim_rate=106022 (inst/sec) elapsed = 0:0:02:06 / Tue Mar 22 13:07:07 2016
GPGPU-Sim uArch: cycles simulated: 163000  inst.: 13427748 (ipc=82.4) sim_rate=105730 (inst/sec) elapsed = 0:0:02:07 / Tue Mar 22 13:07:08 2016
GPGPU-Sim PTX: 13500000 instructions simulated : ctaid=(12,0,0) tid=(143,0,0)
GPGPU-Sim PTX: 13600000 instructions simulated : ctaid=(9,0,0) tid=(399,0,0)
GPGPU-Sim uArch: cycles simulated: 164500  inst.: 13578948 (ipc=82.5) sim_rate=106085 (inst/sec) elapsed = 0:0:02:08 / Tue Mar 22 13:07:09 2016
GPGPU-Sim PTX: 13700000 instructions simulated : ctaid=(3,0,0) tid=(399,0,0)
GPGPU-Sim uArch: cycles simulated: 165500  inst.: 13683268 (ipc=82.7) sim_rate=106071 (inst/sec) elapsed = 0:0:02:09 / Tue Mar 22 13:07:10 2016
GPGPU-Sim PTX: 13800000 instructions simulated : ctaid=(8,0,0) tid=(207,0,0)
GPGPU-Sim uArch: cycles simulated: 167000  inst.: 13797508 (ipc=82.6) sim_rate=106134 (inst/sec) elapsed = 0:0:02:10 / Tue Mar 22 13:07:11 2016
GPGPU-Sim uArch: cycles simulated: 168500  inst.: 13846436 (ipc=82.2) sim_rate=105697 (inst/sec) elapsed = 0:0:02:11 / Tue Mar 22 13:07:12 2016
GPGPU-Sim PTX: 13900000 instructions simulated : ctaid=(1,0,0) tid=(47,0,0)
GPGPU-Sim uArch: cycles simulated: 170000  inst.: 13942788 (ipc=82.0) sim_rate=105627 (inst/sec) elapsed = 0:0:02:12 / Tue Mar 22 13:07:13 2016
GPGPU-Sim PTX: 14000000 instructions simulated : ctaid=(4,0,0) tid=(463,0,0)
GPGPU-Sim uArch: cycles simulated: 171500  inst.: 14026564 (ipc=81.8) sim_rate=105462 (inst/sec) elapsed = 0:0:02:13 / Tue Mar 22 13:07:14 2016
GPGPU-Sim PTX: 14100000 instructions simulated : ctaid=(13,0,0) tid=(399,0,0)
GPGPU-Sim PTX: 14200000 instructions simulated : ctaid=(2,0,0) tid=(303,0,0)
GPGPU-Sim uArch: cycles simulated: 173000  inst.: 14160324 (ipc=81.9) sim_rate=105674 (inst/sec) elapsed = 0:0:02:14 / Tue Mar 22 13:07:15 2016
GPGPU-Sim PTX: 14300000 instructions simulated : ctaid=(2,0,0) tid=(271,0,0)
GPGPU-Sim uArch: cycles simulated: 174500  inst.: 14266340 (ipc=81.8) sim_rate=105676 (inst/sec) elapsed = 0:0:02:15 / Tue Mar 22 13:07:16 2016
GPGPU-Sim PTX: 14400000 instructions simulated : ctaid=(3,0,0) tid=(207,0,0)
GPGPU-Sim uArch: cycles simulated: 176000  inst.: 14405220 (ipc=81.8) sim_rate=105920 (inst/sec) elapsed = 0:0:02:16 / Tue Mar 22 13:07:17 2016
GPGPU-Sim PTX: 14500000 instructions simulated : ctaid=(4,0,0) tid=(207,0,0)
GPGPU-Sim uArch: cycles simulated: 177000  inst.: 14499652 (ipc=81.9) sim_rate=105836 (inst/sec) elapsed = 0:0:02:17 / Tue Mar 22 13:07:18 2016
GPGPU-Sim PTX: 14600000 instructions simulated : ctaid=(7,0,0) tid=(335,0,0)
GPGPU-Sim uArch: cycles simulated: 178500  inst.: 14614564 (ipc=81.9) sim_rate=105902 (inst/sec) elapsed = 0:0:02:18 / Tue Mar 22 13:07:19 2016
GPGPU-Sim PTX: 14700000 instructions simulated : ctaid=(5,0,0) tid=(111,0,0)
GPGPU-Sim uArch: cycles simulated: 180000  inst.: 14720036 (ipc=81.8) sim_rate=105899 (inst/sec) elapsed = 0:0:02:19 / Tue Mar 22 13:07:20 2016
GPGPU-Sim PTX: 14800000 instructions simulated : ctaid=(12,0,0) tid=(207,0,0)
GPGPU-Sim PTX: 14900000 instructions simulated : ctaid=(3,0,0) tid=(15,0,0)
GPGPU-Sim uArch: cycles simulated: 181500  inst.: 14848932 (ipc=81.8) sim_rate=106063 (inst/sec) elapsed = 0:0:02:20 / Tue Mar 22 13:07:21 2016
GPGPU-Sim uArch: cycles simulated: 182500  inst.: 14904676 (ipc=81.7) sim_rate=105706 (inst/sec) elapsed = 0:0:02:21 / Tue Mar 22 13:07:22 2016
GPGPU-Sim PTX: 15000000 instructions simulated : ctaid=(4,0,0) tid=(335,0,0)
GPGPU-Sim uArch: cycles simulated: 183500  inst.: 14987172 (ipc=81.7) sim_rate=105543 (inst/sec) elapsed = 0:0:02:22 / Tue Mar 22 13:07:23 2016
GPGPU-Sim PTX: 15100000 instructions simulated : ctaid=(7,0,0) tid=(431,0,0)
GPGPU-Sim uArch: cycles simulated: 185000  inst.: 15101764 (ipc=81.6) sim_rate=105606 (inst/sec) elapsed = 0:0:02:23 / Tue Mar 22 13:07:24 2016
GPGPU-Sim PTX: 15200000 instructions simulated : ctaid=(9,0,0) tid=(335,0,0)
GPGPU-Sim uArch: cycles simulated: 186500  inst.: 15236068 (ipc=81.7) sim_rate=105806 (inst/sec) elapsed = 0:0:02:24 / Tue Mar 22 13:07:25 2016
GPGPU-Sim PTX: 15300000 instructions simulated : ctaid=(10,0,0) tid=(335,0,0)
GPGPU-Sim uArch: cycles simulated: 187500  inst.: 15318148 (ipc=81.7) sim_rate=105642 (inst/sec) elapsed = 0:0:02:25 / Tue Mar 22 13:07:26 2016
GPGPU-Sim PTX: 15400000 instructions simulated : ctaid=(13,0,0) tid=(111,0,0)
GPGPU-Sim uArch: cycles simulated: 189000  inst.: 15419460 (ipc=81.6) sim_rate=105612 (inst/sec) elapsed = 0:0:02:26 / Tue Mar 22 13:07:27 2016
GPGPU-Sim PTX: 15500000 instructions simulated : ctaid=(10,0,0) tid=(15,0,0)
GPGPU-Sim uArch: cycles simulated: 190000  inst.: 15488324 (ipc=81.5) sim_rate=105362 (inst/sec) elapsed = 0:0:02:27 / Tue Mar 22 13:07:28 2016
GPGPU-Sim PTX: 15600000 instructions simulated : ctaid=(5,0,0) tid=(367,0,0)
GPGPU-Sim uArch: cycles simulated: 191500  inst.: 15589540 (ipc=81.4) sim_rate=105334 (inst/sec) elapsed = 0:0:02:28 / Tue Mar 22 13:07:29 2016
GPGPU-Sim PTX: 15700000 instructions simulated : ctaid=(0,0,0) tid=(335,0,0)
GPGPU-Sim uArch: cycles simulated: 193000  inst.: 15654020 (ipc=81.1) sim_rate=105060 (inst/sec) elapsed = 0:0:02:29 / Tue Mar 22 13:07:30 2016
GPGPU-Sim uArch: cycles simulated: 194000  inst.: 15731140 (ipc=81.1) sim_rate=104874 (inst/sec) elapsed = 0:0:02:30 / Tue Mar 22 13:07:31 2016
GPGPU-Sim PTX: 15800000 instructions simulated : ctaid=(2,0,0) tid=(207,0,0)
GPGPU-Sim uArch: cycles simulated: 195500  inst.: 15836388 (ipc=81.0) sim_rate=104876 (inst/sec) elapsed = 0:0:02:31 / Tue Mar 22 13:07:32 2016
GPGPU-Sim PTX: 15900000 instructions simulated : ctaid=(5,0,0) tid=(143,0,0)
GPGPU-Sim PTX: 16000000 instructions simulated : ctaid=(0,0,0) tid=(335,0,0)
GPGPU-Sim uArch: cycles simulated: 197000  inst.: 15970180 (ipc=81.1) sim_rate=105066 (inst/sec) elapsed = 0:0:02:32 / Tue Mar 22 13:07:33 2016
GPGPU-Sim PTX: 16100000 instructions simulated : ctaid=(8,0,0) tid=(367,0,0)
GPGPU-Sim uArch: cycles simulated: 198500  inst.: 16093668 (ipc=81.1) sim_rate=105187 (inst/sec) elapsed = 0:0:02:33 / Tue Mar 22 13:07:34 2016
GPGPU-Sim PTX: 16200000 instructions simulated : ctaid=(7,0,0) tid=(399,0,0)
GPGPU-Sim uArch: cycles simulated: 200000  inst.: 16187332 (ipc=80.9) sim_rate=105112 (inst/sec) elapsed = 0:0:02:34 / Tue Mar 22 13:07:35 2016
GPGPU-Sim PTX: 16300000 instructions simulated : ctaid=(0,0,0) tid=(111,0,0)
GPGPU-Sim uArch: cycles simulated: 201500  inst.: 16289572 (ipc=80.8) sim_rate=105094 (inst/sec) elapsed = 0:0:02:35 / Tue Mar 22 13:07:36 2016
GPGPU-Sim PTX: 16400000 instructions simulated : ctaid=(4,0,0) tid=(111,0,0)
GPGPU-Sim uArch: cycles simulated: 203000  inst.: 16394980 (ipc=80.8) sim_rate=105096 (inst/sec) elapsed = 0:0:02:36 / Tue Mar 22 13:07:37 2016
GPGPU-Sim PTX: 16500000 instructions simulated : ctaid=(2,0,0) tid=(79,0,0)
GPGPU-Sim uArch: cycles simulated: 204500  inst.: 16501732 (ipc=80.7) sim_rate=105106 (inst/sec) elapsed = 0:0:02:37 / Tue Mar 22 13:07:38 2016
GPGPU-Sim PTX: 16600000 instructions simulated : ctaid=(5,0,0) tid=(143,0,0)
GPGPU-Sim uArch: cycles simulated: 206000  inst.: 16609956 (ipc=80.6) sim_rate=105126 (inst/sec) elapsed = 0:0:02:38 / Tue Mar 22 13:07:39 2016
GPGPU-Sim PTX: 16700000 instructions simulated : ctaid=(14,0,0) tid=(47,0,0)
GPGPU-Sim uArch: cycles simulated: 207000  inst.: 16726340 (ipc=80.8) sim_rate=105197 (inst/sec) elapsed = 0:0:02:39 / Tue Mar 22 13:07:40 2016
GPGPU-Sim PTX: 16800000 instructions simulated : ctaid=(2,0,0) tid=(15,0,0)
GPGPU-Sim PTX: 16900000 instructions simulated : ctaid=(14,0,0) tid=(463,0,0)
GPGPU-Sim uArch: cycles simulated: 208500  inst.: 16857124 (ipc=80.8) sim_rate=105357 (inst/sec) elapsed = 0:0:02:40 / Tue Mar 22 13:07:41 2016
GPGPU-Sim PTX: 17000000 instructions simulated : ctaid=(1,0,0) tid=(175,0,0)
GPGPU-Sim uArch: cycles simulated: 210000  inst.: 16996036 (ipc=80.9) sim_rate=105565 (inst/sec) elapsed = 0:0:02:41 / Tue Mar 22 13:07:42 2016
GPGPU-Sim PTX: 17100000 instructions simulated : ctaid=(6,0,0) tid=(111,0,0)
GPGPU-Sim uArch: cycles simulated: 211000  inst.: 17069412 (ipc=80.9) sim_rate=105366 (inst/sec) elapsed = 0:0:02:42 / Tue Mar 22 13:07:43 2016
GPGPU-Sim PTX: 17200000 instructions simulated : ctaid=(6,0,0) tid=(463,0,0)
GPGPU-Sim uArch: cycles simulated: 212500  inst.: 17184516 (ipc=80.9) sim_rate=105426 (inst/sec) elapsed = 0:0:02:43 / Tue Mar 22 13:07:44 2016
GPGPU-Sim PTX: 17300000 instructions simulated : ctaid=(8,0,0) tid=(431,0,0)
GPGPU-Sim uArch: cycles simulated: 213500  inst.: 17244836 (ipc=80.8) sim_rate=105151 (inst/sec) elapsed = 0:0:02:44 / Tue Mar 22 13:07:45 2016
GPGPU-Sim uArch: cycles simulated: 214500  inst.: 17316324 (ipc=80.7) sim_rate=104947 (inst/sec) elapsed = 0:0:02:45 / Tue Mar 22 13:07:46 2016
GPGPU-Sim PTX: 17400000 instructions simulated : ctaid=(2,0,0) tid=(15,0,0)
GPGPU-Sim uArch: cycles simulated: 215500  inst.: 17369348 (ipc=80.6) sim_rate=104634 (inst/sec) elapsed = 0:0:02:46 / Tue Mar 22 13:07:47 2016
GPGPU-Sim PTX: 17500000 instructions simulated : ctaid=(13,0,0) tid=(271,0,0)
GPGPU-Sim uArch: cycles simulated: 217000  inst.: 17458788 (ipc=80.5) sim_rate=104543 (inst/sec) elapsed = 0:0:02:47 / Tue Mar 22 13:07:48 2016
GPGPU-Sim uArch: cycles simulated: 218000  inst.: 17503396 (ipc=80.3) sim_rate=104186 (inst/sec) elapsed = 0:0:02:48 / Tue Mar 22 13:07:49 2016
GPGPU-Sim PTX: 17600000 instructions simulated : ctaid=(0,0,0) tid=(143,0,0)
GPGPU-Sim uArch: cycles simulated: 219000  inst.: 17606532 (ipc=80.4) sim_rate=104180 (inst/sec) elapsed = 0:0:02:49 / Tue Mar 22 13:07:50 2016
GPGPU-Sim PTX: 17700000 instructions simulated : ctaid=(2,0,0) tid=(399,0,0)
GPGPU-Sim uArch: cycles simulated: 220000  inst.: 17678404 (ipc=80.4) sim_rate=103990 (inst/sec) elapsed = 0:0:02:50 / Tue Mar 22 13:07:51 2016
GPGPU-Sim PTX: 17800000 instructions simulated : ctaid=(16,0,0) tid=(79,0,0)
GPGPU-Sim uArch: cycles simulated: 221000  inst.: 17739268 (ipc=80.3) sim_rate=103738 (inst/sec) elapsed = 0:0:02:51 / Tue Mar 22 13:07:52 2016
GPGPU-Sim PTX: 17900000 instructions simulated : ctaid=(1,0,0) tid=(79,0,0)
GPGPU-Sim uArch: cycles simulated: 222500  inst.: 17860644 (ipc=80.3) sim_rate=103840 (inst/sec) elapsed = 0:0:02:52 / Tue Mar 22 13:07:53 2016
GPGPU-Sim PTX: 18000000 instructions simulated : ctaid=(12,0,0) tid=(495,0,0)
GPGPU-Sim uArch: cycles simulated: 223500  inst.: 17952164 (ipc=80.3) sim_rate=103769 (inst/sec) elapsed = 0:0:02:53 / Tue Mar 22 13:07:54 2016
GPGPU-Sim uArch: cycles simulated: 224500  inst.: 18012548 (ipc=80.2) sim_rate=103520 (inst/sec) elapsed = 0:0:02:54 / Tue Mar 22 13:07:55 2016
GPGPU-Sim PTX: 18100000 instructions simulated : ctaid=(12,0,0) tid=(47,0,0)
GPGPU-Sim uArch: cycles simulated: 225500  inst.: 18097700 (ipc=80.3) sim_rate=103415 (inst/sec) elapsed = 0:0:02:55 / Tue Mar 22 13:07:56 2016
GPGPU-Sim PTX: 18200000 instructions simulated : ctaid=(9,0,0) tid=(335,0,0)
GPGPU-Sim uArch: cycles simulated: 226500  inst.: 18172932 (ipc=80.2) sim_rate=103255 (inst/sec) elapsed = 0:0:02:56 / Tue Mar 22 13:07:57 2016
GPGPU-Sim PTX: 18300000 instructions simulated : ctaid=(7,0,0) tid=(271,0,0)
GPGPU-Sim uArch: cycles simulated: 228000  inst.: 18327908 (ipc=80.4) sim_rate=103547 (inst/sec) elapsed = 0:0:02:57 / Tue Mar 22 13:07:58 2016
GPGPU-Sim PTX: 18400000 instructions simulated : ctaid=(6,0,0) tid=(111,0,0)
GPGPU-Sim uArch: cycles simulated: 229000  inst.: 18402340 (ipc=80.4) sim_rate=103383 (inst/sec) elapsed = 0:0:02:58 / Tue Mar 22 13:07:59 2016
GPGPU-Sim PTX: 18500000 instructions simulated : ctaid=(11,0,0) tid=(239,0,0)
GPGPU-Sim uArch: cycles simulated: 230000  inst.: 18474244 (ipc=80.3) sim_rate=103208 (inst/sec) elapsed = 0:0:02:59 / Tue Mar 22 13:08:00 2016
GPGPU-Sim PTX: 18600000 instructions simulated : ctaid=(3,0,0) tid=(15,0,0)
GPGPU-Sim uArch: cycles simulated: 231000  inst.: 18560836 (ipc=80.3) sim_rate=103115 (inst/sec) elapsed = 0:0:03:00 / Tue Mar 22 13:08:01 2016
GPGPU-Sim PTX: 18700000 instructions simulated : ctaid=(1,0,0) tid=(431,0,0)
GPGPU-Sim uArch: cycles simulated: 232000  inst.: 18639780 (ipc=80.3) sim_rate=102982 (inst/sec) elapsed = 0:0:03:01 / Tue Mar 22 13:08:02 2016
GPGPU-Sim uArch: cycles simulated: 233000  inst.: 18716388 (ipc=80.3) sim_rate=102837 (inst/sec) elapsed = 0:0:03:02 / Tue Mar 22 13:08:03 2016
GPGPU-Sim PTX: 18800000 instructions simulated : ctaid=(0,0,0) tid=(271,0,0)
GPGPU-Sim uArch: cycles simulated: 234000  inst.: 18810404 (ipc=80.4) sim_rate=102789 (inst/sec) elapsed = 0:0:03:03 / Tue Mar 22 13:08:04 2016
GPGPU-Sim PTX: 18900000 instructions simulated : ctaid=(12,0,0) tid=(95,0,0)
GPGPU-Sim uArch: cycles simulated: 235500  inst.: 18908100 (ipc=80.3) sim_rate=102761 (inst/sec) elapsed = 0:0:03:04 / Tue Mar 22 13:08:05 2016
GPGPU-Sim PTX: 19000000 instructions simulated : ctaid=(8,0,0) tid=(271,0,0)
GPGPU-Sim uArch: cycles simulated: 236500  inst.: 19004900 (ipc=80.4) sim_rate=102729 (inst/sec) elapsed = 0:0:03:05 / Tue Mar 22 13:08:06 2016
GPGPU-Sim PTX: 19100000 instructions simulated : ctaid=(5,0,0) tid=(111,0,0)
GPGPU-Sim uArch: cycles simulated: 237500  inst.: 19080260 (ipc=80.3) sim_rate=102582 (inst/sec) elapsed = 0:0:03:06 / Tue Mar 22 13:08:07 2016
GPGPU-Sim PTX: 19200000 instructions simulated : ctaid=(9,0,0) tid=(15,0,0)
GPGPU-Sim uArch: cycles simulated: 238500  inst.: 19151604 (ipc=80.3) sim_rate=102414 (inst/sec) elapsed = 0:0:03:07 / Tue Mar 22 13:08:08 2016
GPGPU-Sim PTX: 19300000 instructions simulated : ctaid=(6,0,0) tid=(95,0,0)
GPGPU-Sim uArch: cycles simulated: 239500  inst.: 19237076 (ipc=80.3) sim_rate=102324 (inst/sec) elapsed = 0:0:03:08 / Tue Mar 22 13:08:09 2016
GPGPU-Sim PTX: 19400000 instructions simulated : ctaid=(12,0,0) tid=(95,0,0)
GPGPU-Sim uArch: cycles simulated: 241000  inst.: 19341268 (ipc=80.3) sim_rate=102334 (inst/sec) elapsed = 0:0:03:09 / Tue Mar 22 13:08:10 2016
GPGPU-Sim uArch: cycles simulated: 242000  inst.: 19393108 (ipc=80.1) sim_rate=102068 (inst/sec) elapsed = 0:0:03:10 / Tue Mar 22 13:08:11 2016
GPGPU-Sim PTX: 19500000 instructions simulated : ctaid=(6,0,0) tid=(287,0,0)
GPGPU-Sim uArch: cycles simulated: 243000  inst.: 19493748 (ipc=80.2) sim_rate=102061 (inst/sec) elapsed = 0:0:03:11 / Tue Mar 22 13:08:12 2016
GPGPU-Sim PTX: 19600000 instructions simulated : ctaid=(9,0,0) tid=(287,0,0)
GPGPU-Sim uArch: cycles simulated: 244000  inst.: 19565364 (ipc=80.2) sim_rate=101902 (inst/sec) elapsed = 0:0:03:12 / Tue Mar 22 13:08:13 2016
GPGPU-Sim PTX: 19700000 instructions simulated : ctaid=(9,0,0) tid=(319,0,0)
GPGPU-Sim uArch: cycles simulated: 245000  inst.: 19651764 (ipc=80.2) sim_rate=101822 (inst/sec) elapsed = 0:0:03:13 / Tue Mar 22 13:08:14 2016
GPGPU-Sim PTX: 19800000 instructions simulated : ctaid=(9,0,0) tid=(383,0,0)
GPGPU-Sim uArch: cycles simulated: 246000  inst.: 19722996 (ipc=80.2) sim_rate=101664 (inst/sec) elapsed = 0:0:03:14 / Tue Mar 22 13:08:15 2016
GPGPU-Sim PTX: 19900000 instructions simulated : ctaid=(5,0,0) tid=(223,0,0)
GPGPU-Sim uArch: cycles simulated: 247000  inst.: 19815060 (ipc=80.2) sim_rate=101615 (inst/sec) elapsed = 0:0:03:15 / Tue Mar 22 13:08:16 2016
GPGPU-Sim uArch: cycles simulated: 248000  inst.: 19867732 (ipc=80.1) sim_rate=101365 (inst/sec) elapsed = 0:0:03:16 / Tue Mar 22 13:08:17 2016
GPGPU-Sim PTX: 20000000 instructions simulated : ctaid=(7,0,0) tid=(319,0,0)
GPGPU-Sim PTX: 20100000 instructions simulated : ctaid=(14,0,0) tid=(159,0,0)
GPGPU-Sim uArch: cycles simulated: 249500  inst.: 20001268 (ipc=80.2) sim_rate=101529 (inst/sec) elapsed = 0:0:03:17 / Tue Mar 22 13:08:18 2016
GPGPU-Sim uArch: cycles simulated: 250500  inst.: 20081588 (ipc=80.2) sim_rate=101422 (inst/sec) elapsed = 0:0:03:18 / Tue Mar 22 13:08:19 2016
GPGPU-Sim PTX: 20200000 instructions simulated : ctaid=(11,0,0) tid=(479,0,0)
GPGPU-Sim uArch: cycles simulated: 251500  inst.: 20145044 (ipc=80.1) sim_rate=101231 (inst/sec) elapsed = 0:0:03:19 / Tue Mar 22 13:08:20 2016
GPGPU-Sim PTX: 20300000 instructions simulated : ctaid=(13,0,0) tid=(511,0,0)
GPGPU-Sim uArch: cycles simulated: 252500  inst.: 20242548 (ipc=80.2) sim_rate=101212 (inst/sec) elapsed = 0:0:03:20 / Tue Mar 22 13:08:21 2016
GPGPU-Sim PTX: 20400000 instructions simulated : ctaid=(10,0,0) tid=(255,0,0)
GPGPU-Sim uArch: cycles simulated: 253500  inst.: 20294292 (ipc=80.1) sim_rate=100966 (inst/sec) elapsed = 0:0:03:21 / Tue Mar 22 13:08:22 2016
GPGPU-Sim uArch: cycles simulated: 254500  inst.: 20378548 (ipc=80.1) sim_rate=100883 (inst/sec) elapsed = 0:0:03:22 / Tue Mar 22 13:08:23 2016
GPGPU-Sim PTX: 20500000 instructions simulated : ctaid=(5,0,0) tid=(95,0,0)
GPGPU-Sim uArch: cycles simulated: 255500  inst.: 20444148 (ipc=80.0) sim_rate=100710 (inst/sec) elapsed = 0:0:03:23 / Tue Mar 22 13:08:24 2016
GPGPU-Sim PTX: 20600000 instructions simulated : ctaid=(14,0,0) tid=(335,0,0)
GPGPU-Sim uArch: cycles simulated: 257000  inst.: 20557108 (ipc=80.0) sim_rate=100770 (inst/sec) elapsed = 0:0:03:24 / Tue Mar 22 13:08:25 2016
GPGPU-Sim PTX: 20700000 instructions simulated : ctaid=(1,0,0) tid=(159,0,0)
GPGPU-Sim uArch: cycles simulated: 258000  inst.: 20629524 (ipc=80.0) sim_rate=100631 (inst/sec) elapsed = 0:0:03:25 / Tue Mar 22 13:08:26 2016
GPGPU-Sim PTX: 20800000 instructions simulated : ctaid=(9,0,0) tid=(479,0,0)
GPGPU-Sim uArch: cycles simulated: 259000  inst.: 20690900 (ipc=79.9) sim_rate=100441 (inst/sec) elapsed = 0:0:03:26 / Tue Mar 22 13:08:27 2016
GPGPU-Sim PTX: 20900000 instructions simulated : ctaid=(11,0,0) tid=(79,0,0)
GPGPU-Sim uArch: cycles simulated: 260000  inst.: 20804772 (ipc=80.0) sim_rate=100506 (inst/sec) elapsed = 0:0:03:27 / Tue Mar 22 13:08:28 2016
[...]
dram[3]:         0         0         0         0         0         0         0         0         0         0         0         0         0         0         0         0 
dram[4]:         0         0         0         0         0         0         0         0         0         0         0         0         0         0         0         0 
dram[5]:         0         0         0         0         0         0         0         0         0         0         0         0         0         0         0         0 
total accesses: 0
min_bank_accesses = 0!
min_chip_accesses = 0!
number of total read accesses:
dram[0]:      5448      5344      4968      5014      4967      4978      6016      5904      5186      5110      5657      5770      5710      5788      5243      5374 
dram[1]:      5433      5475      5111      5167      5044      5227      6024      6299      5140      5283      5776      5894      5756      5942      5428      5543 
dram[2]:      5369      5509      5008      5140      5054      5110      6087      6255      5207      5429      5708      5874      5693      5890      5403      5598 
dram[3]:      5155      5536      4993      5116      4959      5261      6055      5958      4957      5525      5644      5812      5521      5840      5416      5464 
dram[4]:      5393      5548      5097      5111      4920      5405      6144      6104      5169      5419      5732      5847      5689      5905      5417      5463 
dram[5]:      5420      5455      4984      5066      4952      5249      5998      6135      5084      5349      5628      5838      5731      5738      5379      5456 
total reads: 526390
bank skew: 6299/4920 = 1.28
chip skew: 88542/86477 = 1.02
number of total write accesses:
dram[0]:      4409      4305      4071      4144      3853      3841      4403      4410      4070      4029      4328      4397      4690      4651      4124      4182 
dram[1]:      4441      4434      4176      4179      3865      3938      4555      4572      4140      4043      4424      4387      4667      4726      4196      4254 
dram[2]:      4419      4514      4135      4205      3888      3931      4521      4569      4104      4111      4334      4423      4601      4711      4202      4323 
dram[3]:      4371      4503      4153      4167      3839      3986      4512      4529      3934      4104      4328      4373      4573      4659      4176      4138 
dram[4]:      4436      4510      4186      4147      3850      4084      4521      4558      3998      4053      4358      4460      4630      4786      4180      4203 
dram[5]:      4394      4435      4126      4197      3816      4019      4406      4525      3943      4073      4268      4501      4651      4734      4148      4180 
total reads: 411616
bank skew: 4786/3816 = 1.25
chip skew: 68997/67907 = 1.02
average mf latency per bank:
dram[0]:        548       563       576       575       882       789       583       680       598       603       554       553       535       534       569       569
dram[1]:        558       574       579       588       776       876       697       629       605       613       564       571       546       550       572       580
dram[2]:        598       596       616       623       921       835       667       762       640       721       597       598       578       582       606       604
dram[3]:        570       584       578       618       771       870       708       689       620       752       561       590       552       575       567       611
dram[4]:        588       584       640       614       856       927       688       609       640       684       588       596       573       565       599       602
dram[5]:        578       576       604       594       971       799       605       692       632       619       586       571       560       557       591       586
maximum mf latency per bank:
dram[0]:       1300      1436      1391      1197      1538      1261      1482      1263      1455      1251      1406      1477      1618      1412      1540      1204
dram[1]:       1518      1639      1528      1319      1545      1432      1569      1470      1556      1375      1527      1736      1748      1465      1425      1470
dram[2]:       1214      1245      1314      1422      1434      1287      1378      1569      1453      1291      1388      1431      1512      1436      1351      1340
dram[3]:       1340      1423      1369      1597      1422      1654      1434      1397      1365      1286      1492      1503      1564      1453      1323      1360
dram[4]:       1529      1579      1583      1548      1478      1497      1581      1469      1555      1492      1560      2029      1611      1511      1516      1410
dram[5]:       1264      1247      1217      1361      1297      1284      1360      1311      1290      1330      1433      1324      1289      1422      1177      1348

Number of Memory Banks Accessed per Memory Operation per Warp (from 0):
0	0	0	0	0	0	0	0	0	0	0	0	0	0	0	0	0	0	0	0	0	0	0	0	0	0	0	0	0	0	0	0	0	0	0	0	0	0	0	0	0	0	0	0	0	0	0	0	0	0	0	0	0	0	0	0	0	0	0	0	0	0	0	0	0	0	0	0	0	0	0	0	0	0	0	0	0	0	0	0	0	0	0	0	0	0	0	0	0	0	0	0	0	0	0	0	
Average # of Memory Banks Accessed per Memory Operation per Warp=-nan

position of mrq chosen
0	0	0	0	0	0	0	0	0	0	0	0	0	0	0	0	

average position of mrq chosen = -nan
Memory Partition 0: 
Cache L2_bank_000:
MSHR contents

Cache L2_bank_001:
MSHR contents

In Dram Latency Queue (total = 0): 
DRAM[0]: 16 bks, busW=4 BL=8 CL=12, tRRD=2 tCCD=6, tRCD=12 tRAS=28 tRP=12 tRC=40
n_cmd=1675195 n_nop=1282592 n_act=67830 n_pre=67814 n_req=154384 n_rd=172954 n_write=84005 bw_util=0.3068
n_activity=1017919 dram_eff=0.5049
bk0: 10896a 1307288i bk1: 10688a 1311825i bk2: 9936a 1332320i bk3: 10028a 1331640i bk4: 9934a 1330672i bk5: 9956a 1329059i bk6: 12032a 1263338i bk7: 11808a 1264495i bk8: 10372a 1331252i bk9: 10220a 1330391i bk10: 11314a 1288277i bk11: 11540a 1277967i bk12: 11420a 1262865i bk13: 11576a 1258680i bk14: 10486a 1300400i bk15: 10748a 1285000i 
dram_util_bins: 0 0 0 0 0 0 0 0 0 0
dram_eff_bins: 0 0 0 0 0 0 0 0 0 0
mrqq: max=16 avg=5.42855
Memory Partition 1: 
Cache L2_bank_002:
MSHR contents

Cache L2_bank_003:
MSHR contents

In Dram Latency Queue (total = 0): 
DRAM[1]: 16 bks, busW=4 BL=8 CL=12, tRRD=2 tCCD=6, tRCD=12 tRAS=28 tRP=12 tRC=40
n_cmd=1675195 n_nop=1273819 n_act=69547 n_pre=69531 n_req=157539 n_rd=177084 n_write=85214 bw_util=0.3132
n_activity=1021335 dram_eff=0.5136
bk0: 10866a 1301273i bk1: 10950a 1291462i bk2: 10222a 1315773i bk3: 10334a 1307705i bk4: 10088a 1319568i bk5: 10454a 1305989i bk6: 12048a 1244384i bk7: 12598a 1227322i bk8: 10280a 1323140i bk9: 10566a 1314445i bk10: 11552a 1281093i bk11: 11788a 1268400i bk12: 11512a 1262581i bk13: 11884a 1240659i bk14: 10856a 1284135i bk15: 11086a 1268162i 
dram_util_bins: 0 0 0 0 0 0 0 0 0 0
dram_eff_bins: 0 0 0 0 0 0 0 0 0 0
mrqq: max=16 avg=5.79117
Memory Partition 2: 
Cache L2_bank_004:
MSHR contents

Cache L2_bank_005:
MSHR contents

In Dram Latency Queue (total = 0): 
DRAM[2]: 16 bks, busW=4 BL=8 CL=12, tRRD=2 tCCD=6, tRCD=12 tRAS=28 tRP=12 tRC=40
n_cmd=1675195 n_nop=1275465 n_act=68875 n_pre=68859 n_req=157325 n_rd=176668 n_write=85328 bw_util=0.3128
n_activity=1027529 dram_eff=0.51
bk0: 10738a 1307660i bk1: 11018a 1292868i bk2: 10016a 1325665i bk3: 10280a 1314181i bk4: 10108a 1325339i bk5: 10220a 1318645i bk6: 12174a 1248563i bk7: 12510a 1238332i bk8: 10414a 1326362i bk9: 10858a 1312499i bk10: 11416a 1287493i bk11: 11748a 1271627i bk12: 11386a 1262976i bk13: 11780a 1247181i bk14: 10806a 1286824i bk15: 11196a 1269044i 
dram_util_bins: 0 0 0 0 0 0 0 0 0 0
dram_eff_bins: 0 0 0 0 0 0 0 0 0 0
mrqq: max=16 avg=5.82983
Memory Partition 3: 
Cache L2_bank_006:
MSHR contents

Cache L2_bank_007:
MSHR contents

In Dram Latency Queue (total = 0): 
DRAM[3]: 16 bks, busW=4 BL=8 CL=12, tRRD=2 tCCD=6, tRCD=12 tRAS=28 tRP=12 tRC=40
n_cmd=1675195 n_nop=1280086 n_act=68036 n_pre=68020 n_req=155557 n_rd=174424 n_write=84629 bw_util=0.3093
n_activity=1029217 dram_eff=0.5034
bk0: 10310a 1318730i bk1: 11072a 1298337i bk2: 9986a 1326434i bk3: 10232a 1320344i bk4: 9918a 1329498i bk5: 10522a 1314576i bk6: 12110a 1257140i bk7: 11916a 1254317i bk8: 9914a 1345706i bk9: 11050a 1314622i bk10: 11288a 1293175i bk11: 11624a 1279824i bk12: 11042a 1276170i bk13: 11680a 1254702i bk14: 10832a 1290313i bk15: 10928a 1285887i 
dram_util_bins: 0 0 0 0 0 0 0 0 0 0
dram_eff_bins: 0 0 0 0 0 0 0 0 0 0
mrqq: max=16 avg=5.57406
Memory Partition 4: 
Cache L2_bank_008:
MSHR contents

Cache L2_bank_009:
MSHR contents

In Dram Latency Queue (total = 0): 
DRAM[4]: 16 bks, busW=4 BL=8 CL=12, tRRD=2 tCCD=6, tRCD=12 tRAS=28 tRP=12 tRC=40
n_cmd=1675195 n_nop=1274418 n_act=69357 n_pre=69341 n_req=157323 n_rd=176726 n_write=85353 bw_util=0.3129
n_activity=1023749 dram_eff=0.512
bk0: 10786a 1308255i bk1: 11096a 1290753i bk2: 10194a 1317324i bk3: 10222a 1313137i bk4: 9840a 1328603i bk5: 10810a 1293720i bk6: 12288a 1243753i bk7: 12208a 1236666i bk8: 10338a 1329433i bk9: 10838a 1313415i bk10: 11464a 1278989i bk11: 11694a 1263143i bk12: 11378a 1264102i bk13: 11810a 1241773i bk14: 10834a 1282881i bk15: 10926a 1275993i 
dram_util_bins: 0 0 0 0 0 0 0 0 0 0
dram_eff_bins: 0 0 0 0 0 0 0 0 0 0
mrqq: max=16 avg=5.84569
Memory Partition 5: 
Cache L2_bank_010:
MSHR contents

Cache L2_bank_011:
MSHR contents

In Dram Latency Queue (total = 0): 
DRAM[5]: 16 bks, busW=4 BL=8 CL=12, tRRD=2 tCCD=6, tRCD=12 tRAS=28 tRP=12 tRC=40
n_cmd=1675195 n_nop=1278985 n_act=68339 n_pre=68323 n_req=155878 n_rd=174924 n_write=84624 bw_util=0.3099
n_activity=1022792 dram_eff=0.5075
bk0: 10840a 1314667i bk1: 10910a 1303154i bk2: 9968a 1328644i bk3: 10132a 1319038i bk4: 9904a 1337063i bk5: 10498a 1309687i bk6: 11996a 1263126i bk7: 12270a 1244808i bk8: 10168a 1336659i bk9: 10698a 1321229i bk10: 11256a 1291632i bk11: 11676a 1269316i bk12: 11462a 1266691i bk13: 11476a 1252343i bk14: 10758a 1293944i bk15: 10912a 1283586i 
dram_util_bins: 0 0 0 0 0 0 0 0 0 0
dram_eff_bins: 0 0 0 0 0 0 0 0 0 0
mrqq: max=16 avg=5.59445

========= L2 cache stats =========
L2_cache_bank[0]: Access = 127102, Miss = 43195, Miss_rate = 0.340, Pending_hits = 122, Reservation_fails = 6798
L2_cache_bank[1]: Access = 126334, Miss = 43282, Miss_rate = 0.343, Pending_hits = 140, Reservation_fails = 6868
L2_cache_bank[2]: Access = 126824, Miss = 43712, Miss_rate = 0.345, Pending_hits = 140, Reservation_fails = 10584
L2_cache_bank[3]: Access = 127514, Miss = 44830, Miss_rate = 0.352, Pending_hits = 187, Reservation_fails = 12058
L2_cache_bank[4]: Access = 127763, Miss = 43529, Miss_rate = 0.341, Pending_hits = 130, Reservation_fails = 8782
L2_cache_bank[5]: Access = 129979, Miss = 44805, Miss_rate = 0.345, Pending_hits = 163, Reservation_fails = 10811
L2_cache_bank[6]: Access = 127497, Miss = 42700, Miss_rate = 0.335, Pending_hits = 115, Reservation_fails = 5677
L2_cache_bank[7]: Access = 130199, Miss = 44512, Miss_rate = 0.342, Pending_hits = 133, Reservation_fails = 10540
L2_cache_bank[8]: Access = 127748, Miss = 43561, Miss_rate = 0.341, Pending_hits = 122, Reservation_fails = 9033
L2_cache_bank[9]: Access = 128643, Miss = 44802, Miss_rate = 0.348, Pending_hits = 121, Reservation_fails = 14730
L2_cache_bank[10]: Access = 127266, Miss = 43176, Miss_rate = 0.339, Pending_hits = 95, Reservation_fails = 5940
L2_cache_bank[11]: Access = 127464, Miss = 44286, Miss_rate = 0.347, Pending_hits = 125, Reservation_fails = 9689
L2_total_cache_accesses = 1534333
L2_total_cache_misses = 526390
L2_total_cache_miss_rate = 0.3431
L2_total_cache_pending_hits = 1593
L2_total_cache_reservation_fails = 111510
L2_total_cache_breakdown:
	L2_cache_stats_breakdown[GLOBAL_ACC_R][HIT] = 577924
	L2_cache_stats_breakdown[GLOBAL_ACC_R][HIT_RESERVED] = 85
	L2_cache_stats_breakdown[GLOBAL_ACC_R][MISS] = 213424
	L2_cache_stats_breakdown[GLOBAL_ACC_R][RESERVATION_FAIL] = 40609
	L2_cache_stats_breakdown[CONST_ACC_R][HIT] = 26
	L2_cache_stats_breakdown[CONST_ACC_R][HIT_RESERVED] = 3
	L2_cache_stats_breakdown[CONST_ACC_R][MISS] = 1
	L2_cache_stats_breakdown[CONST_ACC_R][RESERVATION_FAIL] = 86
	L2_cache_stats_breakdown[GLOBAL_ACC_W][HIT] = 428133
	L2_cache_stats_breakdown[GLOBAL_ACC_W][HIT_RESERVED] = 1458
	L2_cache_stats_breakdown[GLOBAL_ACC_W][MISS] = 312933
	L2_cache_stats_breakdown[GLOBAL_ACC_W][RESERVATION_FAIL] = 69747
	L2_cache_stats_breakdown[INST_ACC_R][HIT] = 267
	L2_cache_stats_breakdown[INST_ACC_R][HIT_RESERVED] = 47
	L2_cache_stats_breakdown[INST_ACC_R][MISS] = 32
	L2_cache_stats_breakdown[INST_ACC_R][RESERVATION_FAIL] = 1068
L2_cache_data_port_util = 0.185
L2_cache_fill_port_util = 0.138

icnt_total_pkts_mem_to_simt=4701509
icnt_total_pkts_simt_to_mem=2284353
LD_mem_lat_dist  0 0 0 0 0 0 0 0 0 0 0 0 0 0 0 0 0 0 0 0 0 0 0 0 0 0 0
ST_mem_lat_dist  0 0 0 0 0 0 0 0 0 0 0 0 0 0 0 0 0 0 0 0 0 0 0 0 0 0 0
----------------------------Interconnect-DETAILS--------------------------------
Class 0:
Packet latency average = 43.2362
	minimum = 6
	maximum = 675
Network latency average = 27.9464
	minimum = 6
	maximum = 565
Slowest packet = 8985
Flit latency average = 23.9432
	minimum = 6
	maximum = 564
Slowest flit = 1133619
Fragmentation average = 0.055616
	minimum = 0
	maximum = 432
Injected packet rate average = 0.0895559
	minimum = 0.060155 (at node 12)
	maximum = 0.12657 (at node 1)
Accepted packet rate average = 0.0895559
	minimum = 0.060155 (at node 12)
	maximum = 0.12657 (at node 1)
Injected flit rate average = 0.203875
	minimum = 0.0904137 (at node 12)
	maximum = 0.317991 (at node 22)
Accepted flit rate average= 0.203875
	minimum = 0.148781 (at node 16)
	maximum = 0.393196 (at node 1)
Injected packet length average = 2.27651
Accepted packet length average = 2.27651
Total in-flight flits = 0 (0 measured)
====== Overall Traffic Statistics ======
====== Traffic class 0 ======
Packet latency average = 43.2362 (1 samples)
	minimum = 6 (1 samples)
	maximum = 675 (1 samples)
Network latency average = 27.9464 (1 samples)
	minimum = 6 (1 samples)
	maximum = 565 (1 samples)
Flit latency average = 23.9432 (1 samples)
	minimum = 6 (1 samples)
	maximum = 564 (1 samples)
Fragmentation average = 0.055616 (1 samples)
	minimum = 0 (1 samples)
	maximum = 432 (1 samples)
Injected packet rate average = 0.0895559 (1 samples)
	minimum = 0.060155 (1 samples)
	maximum = 0.12657 (1 samples)
Accepted packet rate average = 0.0895559 (1 samples)
	minimum = 0.060155 (1 samples)
	maximum = 0.12657 (1 samples)
Injected flit rate average = 0.203875 (1 samples)
	minimum = 0.0904137 (1 samples)
	maximum = 0.317991 (1 samples)
Accepted flit rate average = 0.203875 (1 samples)
	minimum = 0.148781 (1 samples)
	maximum = 0.393196 (1 samples)
Injected packet size average = 2.27651 (1 samples)
Accepted packet size average = 2.27651 (1 samples)
Hops average = 1 (1 samples)
----------------------------END-of-Interconnect-DETAILS-------------------------


gpgpu_simulation_time = 0 days, 0 hrs, 13 min, 14 sec (794 sec)
gpgpu_simulation_rate = 102599 (inst/sec)
gpgpu_simulation_rate = 1598 (cycle/sec)
kernel '_Z10sum_kernelPfi' transfer to GPU hardware scheduler
GPGPU-Sim uArch: Shader 6 bind to kernel 2 '_Z10sum_kernelPfi'
GPGPU-Sim uArch: CTA/core = 3, limited by: threads
GPGPU-Sim uArch: core:  6, cta: 0 initialized @(1,1269088)
GPGPU-Sim uArch: Shader 7 bind to kernel 2 '_Z10sum_kernelPfi'
GPGPU-Sim uArch: core:  7, cta: 0 initialized @(1,1269088)
GPGPU-Sim uArch: Shader 8 bind to kernel 2 '_Z10sum_kernelPfi'
GPGPU-Sim uArch: core:  8, cta: 0 initialized @(1,1269088)
GPGPU-Sim uArch: Shader 9 bind to kernel 2 '_Z10sum_kernelPfi'
GPGPU-Sim uArch: core:  9, cta: 0 initialized @(1,1269088)
GPGPU-Sim uArch: Shader 10 bind to kernel 2 '_Z10sum_kernelPfi'
GPGPU-Sim uArch: core: 10, cta: 0 initialized @(1,1269088)
GPGPU-Sim uArch: Shader 11 bind to kernel 2 '_Z10sum_kernelPfi'
GPGPU-Sim uArch: core: 11, cta: 0 initialized @(1,1269088)
GPGPU-Sim uArch: Shader 12 bind to kernel 2 '_Z10sum_kernelPfi'
GPGPU-Sim uArch: core: 12, cta: 0 initialized @(1,1269088)
GPGPU-Sim uArch: Shader 13 bind to kernel 2 '_Z10sum_kernelPfi'
GPGPU-Sim uArch: core: 13, cta: 0 initialized @(1,1269088)
GPGPU-Sim uArch: Shader 14 bind to kernel 2 '_Z10sum_kernelPfi'
GPGPU-Sim uArch: core: 14, cta: 0 initialized @(1,1269088)
GPGPU-Sim uArch: Shader 0 bind to kernel 2 '_Z10sum_kernelPfi'
GPGPU-Sim uArch: core:  0, cta: 0 initialized @(1,1269088)
GPGPU-Sim uArch: Shader 1 bind to kernel 2 '_Z10sum_kernelPfi'
GPGPU-Sim uArch: core:  1, cta: 0 initialized @(1,1269088)
GPGPU-Sim uArch: Shader 2 bind to kernel 2 '_Z10sum_kernelPfi'
GPGPU-Sim uArch: core:  2, cta: 0 initialized @(1,1269088)
GPGPU-Sim uArch: Shader 3 bind to kernel 2 '_Z10sum_kernelPfi'
GPGPU-Sim uArch: core:  3, cta: 0 initialized @(1,1269088)
GPGPU-Sim uArch: Shader 4 bind to kernel 2 '_Z10sum_kernelPfi'
GPGPU-Sim uArch: core:  4, cta: 0 initialized @(1,1269088)
GPGPU-Sim uArch: Shader 5 bind to kernel 2 '_Z10sum_kernelPfi'
GPGPU-Sim uArch: core:  5, cta: 0 initialized @(1,1269088)
GPGPU-Sim uArch: core:  6, cta: 1 initialized @(2,1269088)
GPGPU-Sim uArch: core:  7, cta: 1 initialized @(2,1269088)
GPGPU-Sim uArch: core:  8, cta: 1 initialized @(2,1269088)
GPGPU-Sim uArch: core:  9, cta: 1 initialized @(2,1269088)
GPGPU-Sim uArch: core: 10, cta: 1 initialized @(2,1269088)
GPGPU-Sim PTX: 84400000 instructions simulated : ctaid=(16,0,0) tid=(55,0,0)
GPGPU-Sim uArch: cycles simulated: 1269588  inst.: 81484524 (ipc=41.0) sim_rate=102496 (inst/sec) elapsed = 0:0:13:15 / Tue Mar 22 13:18:16 2016
GPGPU-Sim uArch: Shader 11 finished CTA #0 (921,1269088), 0 CTAs running
GPGPU-Sim uArch: Shader 11 empty (release kernel 2 '_Z10sum_kernelPfi').
GPGPU-Sim uArch: Shader 5 finished CTA #0 (927,1269088), 0 CTAs running
GPGPU-Sim uArch: Shader 5 empty (release kernel 2 '_Z10sum_kernelPfi').
GPGPU-Sim uArch: Shader 2 finished CTA #0 (933,1269088), 0 CTAs running
GPGPU-Sim uArch: Shader 2 empty (release kernel 2 '_Z10sum_kernelPfi').
GPGPU-Sim uArch: Shader 3 finished CTA #0 (939,1269088), 0 CTAs running
GPGPU-Sim uArch: Shader 3 empty (release kernel 2 '_Z10sum_kernelPfi').
GPGPU-Sim uArch: Shader 4 finished CTA #0 (945,1269088), 0 CTAs running
GPGPU-Sim uArch: Shader 4 empty (release kernel 2 '_Z10sum_kernelPfi').
GPGPU-Sim uArch: Shader 12 finished CTA #0 (957,1269088), 0 CTAs running
GPGPU-Sim uArch: Shader 12 empty (release kernel 2 '_Z10sum_kernelPfi').
GPGPU-Sim uArch: Shader 6 finished CTA #1 (966,1269088), 1 CTAs running
GPGPU-Sim uArch: Shader 13 finished CTA #0 (969,1269088), 0 CTAs running
GPGPU-Sim uArch: Shader 13 empty (release kernel 2 '_Z10sum_kernelPfi').
GPGPU-Sim uArch: Shader 14 finished CTA #0 (975,1269088), 0 CTAs running
GPGPU-Sim uArch: Shader 14 empty (release kernel 2 '_Z10sum_kernelPfi').
GPGPU-Sim uArch: Shader 7 finished CTA #0 (977,1269088), 1 CTAs running
GPGPU-Sim uArch: Shader 7 finished CTA #1 (979,1269088), 0 CTAs running
GPGPU-Sim uArch: Shader 7 empty (release kernel 2 '_Z10sum_kernelPfi').
GPGPU-Sim uArch: Shader 0 finished CTA #0 (981,1269088), 0 CTAs running
GPGPU-Sim uArch: Shader 0 empty (release kernel 2 '_Z10sum_kernelPfi').
GPGPU-Sim uArch: Shader 1 finished CTA #0 (987,1269088), 0 CTAs running
GPGPU-Sim uArch: Shader 1 empty (release kernel 2 '_Z10sum_kernelPfi').
GPGPU-Sim uArch: Shader 8 finished CTA #0 (1002,1269088), 1 CTAs running
GPGPU-Sim uArch: Shader 8 finished CTA #1 (1009,1269088), 0 CTAs running
GPGPU-Sim uArch: Shader 8 empty (release kernel 2 '_Z10sum_kernelPfi').
GPGPU-Sim uArch: Shader 9 finished CTA #0 (1013,1269088), 1 CTAs running
GPGPU-Sim uArch: Shader 9 finished CTA #1 (1015,1269088), 0 CTAs running
GPGPU-Sim uArch: Shader 9 empty (release kernel 2 '_Z10sum_kernelPfi').
GPGPU-Sim uArch: Shader 10 finished CTA #0 (1019,1269088), 1 CTAs running
GPGPU-Sim uArch: Shader 10 finished CTA #1 (1021,1269088), 0 CTAs running
GPGPU-Sim uArch: Shader 10 empty (release kernel 2 '_Z10sum_kernelPfi').
