

        *** GPGPU-Sim Simulator Version 3.2.2  [build 0] ***


GPGPU-Sim PTX: simulation mode 0 (can change with PTX_SIM_MODE_FUNC environment variable:
               1=functional simulation only, 0=detailed performance simulator)
GPGPU-Sim: Configuration options:

-network_mode                           1 # Interconnection network mode
-inter_config_file   config_fermi_islip.icnt # Interconnection network config file
-gpgpu_ptx_use_cuobjdump                    1 # Use cuobjdump to extract ptx and sass from binaries
-gpgpu_experimental_lib_support                    0 # Try to extract code from cuda libraries [Broken because of unknown cudaGetExportTable]
-gpgpu_ptx_convert_to_ptxplus                    0 # Convert SASS (native ISA) to ptxplus and run ptxplus
-gpgpu_ptx_force_max_capability                   20 # Force maximum compute capability
-gpgpu_ptx_inst_debug_to_file                    0 # Dump executed instructions' debug information to file
-gpgpu_ptx_inst_debug_file       inst_debug.txt # Executed instructions' debug output file
-gpgpu_ptx_inst_debug_thread_uid                    1 # Thread UID for executed instructions' debug output
-gpgpu_simd_model                       1 # 1 = post-dominator
-gpgpu_shader_core_pipeline              1536:32 # shader core pipeline config, i.e., {<nthread>:<warpsize>}
-gpgpu_tex_cache:l1  4:128:24,L:R:m:N:L,F:128:4,128:2 # per-shader L1 texture cache  (READ-ONLY) config  {<nsets>:<bsize>:<assoc>,<rep>:<wr>:<alloc>:<wr_alloc>,<mshr>:<N>:<merge>,<mq>:<rf>}
-gpgpu_const_cache:l1 64:64:2,L:R:f:N:L,A:2:32,4 # per-shader L1 constant memory cache  (READ-ONLY) config  {<nsets>:<bsize>:<assoc>,<rep>:<wr>:<alloc>:<wr_alloc>,<mshr>:<N>:<merge>,<mq>} 
-gpgpu_cache:il1     4:128:4,L:R:f:N:L,A:2:32,4 # shader L1 instruction cache config  {<nsets>:<bsize>:<assoc>,<rep>:<wr>:<alloc>:<wr_alloc>,<mshr>:<N>:<merge>,<mq>} 
-gpgpu_cache:dl1     32:128:4,L:L:m:N:H,A:32:8,8:2,0,1:0:1:1:0:1,1:4:8:16:32:64,/sciclone/data10/hwang07/GPU_RESEARCH/swl/swl_outputs/RESULTS/swl8/ # per-shader L1 data cache config  {<nsets>:<bsize>:<assoc>,<rep>:<wr>:<alloc>:<wr_alloc>,<mshr>:<N>:<merge>,<mq> | none}
-gpgpu_cache:dl1PrefL1                 none # per-shader L1 data cache config  {<nsets>:<bsize>:<assoc>,<rep>:<wr>:<alloc>:<wr_alloc>,<mshr>:<N>:<merge>,<mq> | none}
-gpgpu_cache:dl1PreShared                 none # per-shader L1 data cache config  {<nsets>:<bsize>:<assoc>,<rep>:<wr>:<alloc>:<wr_alloc>,<mshr>:<N>:<merge>,<mq> | none}
-gmem_skip_L1D                          0 # global memory access skip L1D cache (implements -Xptxas -dlcm=cg, default=no skip)
-gpgpu_perfect_mem                      0 # enable perfect memory mode (no cache miss)
-n_regfile_gating_group                    4 # group of lanes that should be read/written together)
-gpgpu_clock_gated_reg_file                    0 # enable clock gated reg file for power calculations
-gpgpu_clock_gated_lanes                    0 # enable clock gated lanes for power calculations
-gpgpu_shader_registers                32768 # Number of registers per shader core. Limits number of concurrent CTAs. (default 8192)
-gpgpu_shader_cta                       8 # Maximum number of concurrent CTAs in shader (default 8)
-gpgpu_num_cta_barriers                   16 # Maximum number of named barriers per CTA (default 16)
-gpgpu_n_clusters                      15 # number of processing clusters
-gpgpu_n_cores_per_cluster                    1 # number of simd cores per cluster
-gpgpu_n_cluster_ejection_buffer_size                    8 # number of packets in ejection buffer
-gpgpu_n_ldst_response_buffer_size                    2 # number of response packets in ld/st unit ejection buffer
-gpgpu_shmem_size                   16384 # Size of shared memory per shader core (default 16kB)
-gpgpu_shmem_size                   49152 # Size of shared memory per shader core (default 16kB)
-gpgpu_shmem_size_PrefL1                16384 # Size of shared memory per shader core (default 16kB)
-gpgpu_shmem_size_PrefShared                16384 # Size of shared memory per shader core (default 16kB)
-gpgpu_shmem_num_banks                   32 # Number of banks in the shared memory in each shader core (default 16)
-gpgpu_shmem_limited_broadcast                    0 # Limit shared memory to do one broadcast per cycle (default on)
-gpgpu_shmem_warp_parts                    1 # Number of portions a warp is divided into for shared memory bank conflict check 
-gpgpu_warpdistro_shader                   -1 # Specify which shader core to collect the warp size distribution from
-gpgpu_warp_issue_shader                    0 # Specify which shader core to collect the warp issue distribution from
-gpgpu_local_mem_map                    1 # Mapping from local memory space address to simulated GPU physical address space (default = enabled)
-gpgpu_num_reg_banks                   16 # Number of register banks (default = 8)
-gpgpu_reg_bank_use_warp_id                    0 # Use warp ID in mapping registers to banks (default = off)
-gpgpu_operand_collector_num_units_sp                    6 # number of collector units (default = 4)
-gpgpu_operand_collector_num_units_sfu                    8 # number of collector units (default = 4)
-gpgpu_operand_collector_num_units_mem                    2 # number of collector units (default = 2)
-gpgpu_operand_collector_num_units_gen                    0 # number of collector units (default = 0)
-gpgpu_operand_collector_num_in_ports_sp                    2 # number of collector unit in ports (default = 1)
-gpgpu_operand_collector_num_in_ports_sfu                    1 # number of collector unit in ports (default = 1)
-gpgpu_operand_collector_num_in_ports_mem                    1 # number of collector unit in ports (default = 1)
-gpgpu_operand_collector_num_in_ports_gen                    0 # number of collector unit in ports (default = 0)
-gpgpu_operand_collector_num_out_ports_sp                    2 # number of collector unit in ports (default = 1)
-gpgpu_operand_collector_num_out_ports_sfu                    1 # number of collector unit in ports (default = 1)
-gpgpu_operand_collector_num_out_ports_mem                    1 # number of collector unit in ports (default = 1)
-gpgpu_operand_collector_num_out_ports_gen                    0 # number of collector unit in ports (default = 0)
-gpgpu_coalesce_arch                   13 # Coalescing arch (default = 13, anything else is off for now)
-gpgpu_num_sched_per_core                    2 # Number of warp schedulers per core
-gpgpu_max_insn_issue_per_warp                    1 # Max number of instructions that can be issued per warp in one cycle by scheduler
-gpgpu_simt_core_sim_order                    1 # Select the simulation order of cores in a cluster (0=Fix, 1=Round-Robin)
-gpgpu_pipeline_widths        2,1,1,2,1,1,2 # Pipeline widths ID_OC_SP,ID_OC_SFU,ID_OC_MEM,OC_EX_SP,OC_EX_SFU,OC_EX_MEM,EX_WB
-gpgpu_num_sp_units                     2 # Number of SP units (default=1)
-gpgpu_num_sfu_units                    1 # Number of SF units (default=1)
-gpgpu_num_mem_units                    1 # Number if ldst units (default=1) WARNING: not hooked up to anything
-gpgpu_scheduler        warp_limiting:2:8 # Scheduler configuration: < lrr | gto | two_level_active > If two_level_active:<num_active_warps>:<inner_prioritization>:<outer_prioritization>For complete list of prioritization values see shader.h enum scheduler_prioritization_typeDefault: gto
-gpgpu_dram_scheduler                    1 # 0 = fifo, 1 = FR-FCFS (defaul)
-gpgpu_dram_partition_queues              8:8:8:8 # i2$:$2d:d2$:$2i
-l2_ideal                               0 # Use a ideal L2 cache that always hit
-gpgpu_cache:dl2     64:128:8,L:B:m:W:L,A:32:4,4:0,32 # unified banked L2 data cache config  {<nsets>:<bsize>:<assoc>,<rep>:<wr>:<alloc>:<wr_alloc>,<mshr>:<N>:<merge>,<mq>}
-gpgpu_cache:dl2_texture_only                    0 # L2 cache used for texture only
-gpgpu_n_mem                            6 # number of memory modules (e.g. memory controllers) in gpu
-gpgpu_n_sub_partition_per_mchannel                    2 # number of memory subpartition in each memory module
-gpgpu_n_mem_per_ctrlr                    2 # number of memory chips per memory controller
-gpgpu_memlatency_stat                   14 # track and display latency statistics 0x2 enables MC, 0x4 enables queue logs
-gpgpu_frfcfs_dram_sched_queue_size                   16 # 0 = unlimited (default); # entries per chip
-gpgpu_dram_return_queue_size                  116 # 0 = unlimited (default); # entries per chip
-gpgpu_dram_buswidth                    4 # default = 4 bytes (8 bytes per cycle at DDR)
-gpgpu_dram_burst_length                    8 # Burst length of each DRAM request (default = 4 data bus cycle)
-dram_data_command_freq_ratio                    4 # Frequency ratio between DRAM data bus and command bus (default = 2 times, i.e. DDR)
-gpgpu_dram_timing_opt nbk=16:CCD=2:RRD=6:RCD=12:RAS=28:RP=12:RC=40: CL=12:WL=4:CDLR=5:WR=12:nbkgrp=4:CCDL=3:RTPL=2 # DRAM timing parameters = {nbk:tCCD:tRRD:tRCD:tRAS:tRP:tRC:CL:WL:tCDLR:tWR:nbkgrp:tCCDL:tRTPL}
-rop_latency                          120 # ROP queue latency (default 85)
-dram_latency                         100 # DRAM latency (default 30)
-gpgpu_mem_addr_mapping dramid@8;00000000.00000000.00000000.00000000.0000RRRR.RRRRRRRR.BBBCCCCB.CCSSSSSS # mapping memory address to dram model {dramid@<start bit>;<memory address map>}
-gpgpu_mem_addr_test                    0 # run sweep test to check address mapping for aliased address
-gpgpu_mem_address_mask                    1 # 0 = old addressing mask, 1 = new addressing mask, 2 = new add. mask + flipped bank sel and chip sel bits
-gpuwattch_xml_file  gpuwattch_gtx480.xml # GPUWattch XML file
-power_simulation_enabled                    0 # Turn on power simulator (1=On, 0=Off)
-power_per_cycle_dump                    0 # Dump detailed power output each cycle
-power_trace_enabled                    0 # produce a file for the power trace (1=On, 0=Off)
-power_trace_zlevel                     6 # Compression level of the power trace output log (0=no comp, 9=highest)
-steady_power_levels_enabled                    0 # produce a file for the steady power levels (1=On, 0=Off)
-steady_state_definition                  8:4 # allowed deviation:number of samples
-gpgpu_max_cycle                        0 # terminates gpu simulation early (0 = no limit)
-gpgpu_max_insn                         0 # terminates gpu simulation early (0 = no limit)
-gpgpu_max_cta                          0 # terminates gpu simulation early (0 = no limit)
-gpgpu_runtime_stat                   500 # display runtime statistics such as dram utilization {<freq>:<flag>}
-liveness_message_freq                    1 # Minimum number of seconds between simulation liveness messages (0 = always print)
-gpgpu_flush_l1_cache                    0 # Flush L1 cache at the end of each kernel call
-gpgpu_flush_l2_cache                    0 # Flush L2 cache at the end of each kernel call
-gpgpu_deadlock_detect                    1 # Stop the simulation at deadlock (1=on (default), 0=off)
-gpgpu_ptx_instruction_classification                    0 # if enabled will classify ptx instruction types per kernel (Max 255 kernels now)
-gpgpu_ptx_sim_mode                     0 # Select between Performance (default) or Functional simulation (1)
-gpgpu_clock_domains 700.0:700.0:700.0:924.0 # Clock Domain Frequencies in MhZ {<Core Clock>:<ICNT Clock>:<L2 Clock>:<DRAM Clock>}
-gpgpu_max_concurrent_kernel                    8 # maximum kernels that can run concurrently on GPU
-gpgpu_cflog_interval                    0 # Interval between each snapshot in control flow logger
-visualizer_enabled                     0 # Turn on visualizer output (1=On, 0=Off)
-visualizer_outputfile                 NULL # Specifies the output log file for visualizer
-visualizer_zlevel                      6 # Compression level of the visualizer output log (0=no comp, 9=highest)
-trace_enabled                          0 # Turn on traces
-trace_components                    none # comma seperated list of traces to enable. Complete list found in trace_streams.tup. Default none
-trace_sampling_core                    0 # The core which is printed using CORE_DPRINTF. Default 0
-trace_sampling_memory_partition                   -1 # The memory partition which is printed using MEMPART_DPRINTF. Default -1 (i.e. all)
-enable_ptx_file_line_stats                    1 # Turn on PTX source line statistic profiling. (1 = On)
-ptx_line_stats_filename gpgpu_inst_stats.txt # Output file for PTX source line statistics.
-save_embedded_ptx                      0 # saves ptx files embedded in binary as <n>.ptx
-keep                                   0 # keep intermediate files created by GPGPU-Sim when interfacing with external programs
-gpgpu_ptx_save_converted_ptxplus                    0 # Saved converted ptxplus to a file
-ptx_opcode_latency_int         4,13,4,5,145 # Opcode latencies for integers <ADD,MAX,MUL,MAD,DIV>Default 1,1,19,25,145
-ptx_opcode_latency_fp          4,13,4,5,39 # Opcode latencies for single precision floating points <ADD,MAX,MUL,MAD,DIV>Default 1,1,1,1,30
-ptx_opcode_latency_dp         8,19,8,8,330 # Opcode latencies for double precision floating points <ADD,MAX,MUL,MAD,DIV>Default 8,8,8,8,335
-ptx_opcode_initiation_int            1,2,2,1,8 # Opcode initiation intervals for integers <ADD,MAX,MUL,MAD,DIV>Default 1,1,4,4,32
-ptx_opcode_initiation_fp            1,2,1,1,4 # Opcode initiation intervals for single precision floating points <ADD,MAX,MUL,MAD,DIV>Default 1,1,1,1,5
-ptx_opcode_initiation_dp         8,16,8,8,130 # Opcode initiation intervals for double precision floating points <ADD,MAX,MUL,MAD,DIV>Default 8,8,8,8,130
DRAM Timing Options:
nbk                                    16 # number of banks
CCD                                     2 # column to column delay
RRD                                     6 # minimal delay between activation of rows in different banks
RCD                                    12 # row to column delay
RAS                                    28 # time needed to activate row
RP                                     12 # time needed to precharge (deactivate) row
RC                                     40 # row cycle time
CDLR                                    5 # switching from write to read (changes tWTR)
WR                                     12 # last data-in to row precharge
CL                                     12 # CAS latency
WL                                      4 # Write latency
nbkgrp                                  4 # number of bank groups
CCDL                                    3 # column to column delay between accesses to different bank groups
RTPL                                    2 # read to precharge delay between accesses to different bank groups
Total number of memory sub partition = 12
addr_dec_mask[CHIP]  = 0000000000000000 	high:64 low:0
addr_dec_mask[BK]    = 000000000000e100 	high:16 low:8
addr_dec_mask[ROW]   = 000000000fff0000 	high:28 low:16
addr_dec_mask[COL]   = 0000000000001eff 	high:13 low:0
addr_dec_mask[BURST] = 000000000000003f 	high:6 low:0
sub_partition_id_mask = 0000000000000100
GPGPU-Sim uArch: clock freqs: 700000000.000000:700000000.000000:700000000.000000:924000000.000000
GPGPU-Sim uArch: clock periods: 0.00000000142857142857:0.00000000142857142857:0.00000000142857142857:0.00000000108225108225
*** Initializing Memory Statistics ***
GPGPU-Sim uArch: interconnect node map (shaderID+MemID to icntID)
GPGPU-Sim uArch: Memory nodes ID start from index: 15
GPGPU-Sim uArch:    0   1   2   3   4
GPGPU-Sim uArch:    5   6   7   8   9
GPGPU-Sim uArch:   10  11  12  13  14
GPGPU-Sim uArch:   15  16  17  18  19
GPGPU-Sim uArch:   20  21  22  23  24
GPGPU-Sim uArch:   25  26
GPGPU-Sim uArch: interconnect node reverse map (icntID to shaderID+MemID)
GPGPU-Sim uArch: Memory nodes start from ID: 15
GPGPU-Sim uArch:    0   1   2   3   4
GPGPU-Sim uArch:    5   6   7   8   9
GPGPU-Sim uArch:   10  11  12  13  14
GPGPU-Sim uArch:   15  16  17  18  19
GPGPU-Sim uArch:   20  21  22  23  24
GPGPU-Sim uArch:   25  26
7fda3539671ef22924a0c4c414b8a557  /sciclone/data10/hwang07/adwait/applications/benchmarks/shoc/bin/Serial/CUDA/MD
GPGPU-Sim uArch: performance model initialization complete.
GPGPU-Sim PTX: __cudaRegisterFatBinary, fat_cubin_handle = 1, filename=MD.cu
self exe links to: /sciclone/data10/hwang07/adwait/applications/benchmarks/shoc/bin/Serial/CUDA/MD
Running md5sum using "md5sum /sciclone/data10/hwang07/adwait/applications/benchmarks/shoc/bin/Serial/CUDA/MD "
Parsing file _cuobjdump_complete_output_MhJb3n
######### cuobjdump parser ########
## Adding new section ELF
Adding arch: sm_12
Adding identifier: MD.cu
## Adding new section ELF
Adding arch: sm_20
Adding identifier: MD.cu
## Adding new section PTX
Adding ptx filename: _cuobjdump_1.ptx
Adding arch: sm_20
Adding identifier: MD.cu
## Adding new section ELF
Adding arch: sm_13
Adding identifier: MD.cu
Done parsing!!!
GPGPU-Sim PTX: __cudaRegisterFunction _Z16compute_lj_forceId7double37double4Lb1E12texReader_dpEvPT0_PKT1_iPKiT_SA_SA_i : hostFun 0x0x406e30, fat_cubin_handle = 1
GPGPU-Sim PTX: allocating global region for "posTexture" from 0x100 to 0x104 (global memory space)
GPGPU-Sim PTX: instruction assembly for function '_Z16compute_lj_forceIf6float36float4Lb1E12texReader_spEvPT0_PKT1_iPKiT_SA_SA_i'...   done.
GPGPU-Sim PTX: finding reconvergence points for '_Z16compute_lj_forceIf6float36float4Lb1E12texReader_spEvPT0_PKT1_iPKiT_SA_SA_i'...
GPGPU-Sim PTX: Finding dominators for '_Z16compute_lj_forceIf6float36float4Lb1E12texReader_spEvPT0_PKT1_iPKiT_SA_SA_i'...
GPGPU-Sim PTX: Finding immediate dominators for '_Z16compute_lj_forceIf6float36float4Lb1E12texReader_spEvPT0_PKT1_iPKiT_SA_SA_i'...
GPGPU-Sim PTX: Finding postdominators for '_Z16compute_lj_forceIf6float36float4Lb1E12texReader_spEvPT0_PKT1_iPKiT_SA_SA_i'...
GPGPU-Sim PTX: Finding immediate postdominators for '_Z16compute_lj_forceIf6float36float4Lb1E12texReader_spEvPT0_PKT1_iPKiT_SA_SA_i'...
GPGPU-Sim PTX: pre-decoding instructions for '_Z16compute_lj_forceIf6float36float4Lb1E12texReader_spEvPT0_PKT1_iPKiT_SA_SA_i'...
GPGPU-Sim PTX: reconvergence points for _Z16compute_lj_forceIf6float36float4Lb1E12texReader_spEvPT0_PKT1_iPKiT_SA_SA_i...
GPGPU-Sim PTX:  1 (potential) branch divergence @  PC=0x068 (_1.ptx:82) @%p1 bra $Lt_0_4354;
GPGPU-Sim PTX:    immediate post dominator      @  PC=0x218 (_1.ptx:146) ld.param.u64 %rd10, [__cudaparm__Z16compute_lj_forceIf6float36float4Lb1E12texReader_spEvPT0_PKT1_iPKiT_SA_SA_i_force3];
GPGPU-Sim PTX:  2 (potential) branch divergence @  PC=0x170 (_1.ptx:118) @!%p2 bra $Lt_0_3586;
GPGPU-Sim PTX:    immediate post dominator      @  PC=0x1d8 (_1.ptx:135) add.s32 %r10, %r10, 1;
GPGPU-Sim PTX:  3 (potential) branch divergence @  PC=0x1f0 (_1.ptx:138) @%p3 bra $Lt_0_3330;
GPGPU-Sim PTX:    immediate post dominator      @  PC=0x1f8 (_1.ptx:139) bra.uni $Lt_0_2818;
GPGPU-Sim PTX:  4 (potential) branch divergence @  PC=0x1f8 (_1.ptx:139) bra.uni $Lt_0_2818;
GPGPU-Sim PTX:    immediate post dominator      @  PC=0x218 (_1.ptx:146) ld.param.u64 %rd10, [__cudaparm__Z16compute_lj_forceIf6float36float4Lb1E12texReader_spEvPT0_PKT1_iPKiT_SA_SA_i_force3];
GPGPU-Sim PTX: ... end of reconvergence points for _Z16compute_lj_forceIf6float36float4Lb1E12texReader_spEvPT0_PKT1_iPKiT_SA_SA_i
GPGPU-Sim PTX: ... done pre-decoding instructions for '_Z16compute_lj_forceIf6float36float4Lb1E12texReader_spEvPT0_PKT1_iPKiT_SA_SA_i'.
GPGPU-Sim PTX: allocating global region for "posTexture_dp" from 0x104 to 0x108 (global memory space)
GPGPU-Sim PTX: instruction assembly for function '_Z16compute_lj_forceId7double37double4Lb1E12texReader_dpEvPT0_PKT1_iPKiT_SA_SA_i'...   done.
GPGPU-Sim PTX: finding reconvergence points for '_Z16compute_lj_forceId7double37double4Lb1E12texReader_dpEvPT0_PKT1_iPKiT_SA_SA_i'...
GPGPU-Sim PTX: Finding dominators for '_Z16compute_lj_forceId7double37double4Lb1E12texReader_dpEvPT0_PKT1_iPKiT_SA_SA_i'...
GPGPU-Sim PTX: Finding immediate dominators for '_Z16compute_lj_forceId7double37double4Lb1E12texReader_dpEvPT0_PKT1_iPKiT_SA_SA_i'...
GPGPU-Sim PTX: Finding postdominators for '_Z16compute_lj_forceId7double37double4Lb1E12texReader_dpEvPT0_PKT1_iPKiT_SA_SA_i'...
GPGPU-Sim PTX: Finding immediate postdominators for '_Z16compute_lj_forceId7double37double4Lb1E12texReader_dpEvPT0_PKT1_iPKiT_SA_SA_i'...
GPGPU-Sim PTX: pre-decoding instructions for '_Z16compute_lj_forceId7double37double4Lb1E12texReader_dpEvPT0_PKT1_iPKiT_SA_SA_i'...
GPGPU-Sim PTX: reconvergence points for _Z16compute_lj_forceId7double37double4Lb1E12texReader_dpEvPT0_PKT1_iPKiT_SA_SA_i...
GPGPU-Sim PTX:  1 (potential) branch divergence @  PC=0x2c0 (_1.ptx:189) @%p1 bra $Lt_1_4354;
GPGPU-Sim PTX:    immediate post dominator      @  PC=0x4f0 (_1.ptx:270) ld.param.u64 %rd10, [__cudaparm__Z16compute_lj_forceId7double37double4Lb1E12texReader_dpEvPT0_PKT1_iPKiT_SA_SA_i_force3];
GPGPU-Sim PTX:  2 (potential) branch divergence @  PC=0x448 (_1.ptx:242) @!%p2 bra $Lt_1_3586;
GPGPU-Sim PTX:    immediate post dominator      @  PC=0x4b0 (_1.ptx:259) add.s32 %r10, %r10, 1;
GPGPU-Sim PTX:  3 (potential) branch divergence @  PC=0x4c8 (_1.ptx:262) @%p3 bra $Lt_1_3330;
GPGPU-Sim PTX:    immediate post dominator      @  PC=0x4d0 (_1.ptx:263) bra.uni $Lt_1_2818;
GPGPU-Sim PTX:  4 (potential) branch divergence @  PC=0x4d0 (_1.ptx:263) bra.uni $Lt_1_2818;
GPGPU-Sim PTX:    immediate post dominator      @  PC=0x4f0 (_1.ptx:270) ld.param.u64 %rd10, [__cudaparm__Z16compute_lj_forceId7double37double4Lb1E12texReader_dpEvPT0_PKT1_iPKiT_SA_SA_i_force3];
GPGPU-Sim PTX: ... end of reconvergence points for _Z16compute_lj_forceId7double37double4Lb1E12texReader_dpEvPT0_PKT1_iPKiT_SA_SA_i
GPGPU-Sim PTX: ... done pre-decoding instructions for '_Z16compute_lj_forceId7double37double4Lb1E12texReader_dpEvPT0_PKT1_iPKiT_SA_SA_i'.
GPGPU-Sim PTX: finished parsing EMBEDDED .ptx file _1.ptx
Adding _cuobjdump_1.ptx with cubin handle 1
GPGPU-Sim PTX: extracting embedded .ptx to temporary file "_ptx_MtKyMZ"
Running: cat _ptx_MtKyMZ | sed 's/.version 1.5/.version 1.4/' | sed 's/, texmode_independent//' | sed 's/\(\.extern \.const\[1\] .b8 \w\+\)\[\]/\1\[1\]/' | sed 's/const\[.\]/const\[0\]/g' > _ptx2_kgHjNE
GPGPU-Sim PTX: generating ptxinfo using "$CUDA_INSTALL_PATH/bin/ptxas --gpu-name=sm_20 -v _ptx2_kgHjNE --output-file  /dev/null 2> _ptx_MtKyMZinfo"
GPGPU-Sim PTX: Kernel '_Z16compute_lj_forceId7double37double4Lb1E12texReader_dpEvPT0_PKT1_iPKiT_SA_SA_i' : regs=37, lmem=0, smem=0, cmem=108
GPGPU-Sim PTX: Kernel '_Z16compute_lj_forceIf6float36float4Lb1E12texReader_spEvPT0_PKT1_iPKiT_SA_SA_i' : regs=26, lmem=0, smem=0, cmem=84
GPGPU-Sim PTX: removing ptxinfo using "rm -f _ptx_MtKyMZ _ptx2_kgHjNE _ptx_MtKyMZinfo"
GPGPU-Sim PTX: loading globals with explicit initializers... 
GPGPU-Sim PTX: finished loading globals (0 bytes total).
GPGPU-Sim PTX: loading constants with explicit initializers...  done.
GPGPU-Sim PTX: __cudaRegisterFunction _Z16compute_lj_forceIf6float36float4Lb1E12texReader_spEvPT0_PKT1_iPKiT_SA_SA_i : hostFun 0x0x406e20, fat_cubin_handle = 1
GPGPU-Sim PTX: in __cudaRegisterTexture:
GPGPU-Sim PTX:   int dim = 1
GPGPU-Sim PTX:   int norm = 0
GPGPU-Sim PTX:   int ext = 0
GPGPU-Sim PTX:   Execution warning: Not finished implementing "void __cudaRegisterTexture(void**, const textureReference*, const void**, const char*, int, int, int)"
GPGPU-Sim PTX: in __cudaRegisterTexture:
GPGPU-Sim PTX:   int dim = 1
GPGPU-Sim PTX:   int norm = 0
GPGPU-Sim PTX:   int ext = 0
GPGPU-Sim PTX:   Execution warning: Not finished implementing "void __cudaRegisterTexture(void**, const textureReference*, const void**, const char*, int, int, int)"
Chose device: name='GPGPU-Sim_vGPGPU-Sim Simulator Version 3.2.2 ' index=0
Running single precision test
Initializing test problem (this can take several minutes for large problems)
GPGPU-Sim PTX: in cudaBindTexture: sizeof(struct textureReference) = 104
GPGPU-Sim PTX:   size = 196608
GPGPU-Sim PTX:   texref = 0x61ee60, array = 0x265b960
GPGPU-Sim PTX:   devPtr32 = 80024000
GPGPU-Sim PTX:   Name corresponding to textureReference: posTexture
GPGPU-Sim PTX:   ChannelFormatDesc: x=32, y=32, z=32, w=32
GPGPU-Sim PTX:   Texture Normalized? = 0
GPGPU-Sim PTX:   texel size = 16
GPGPU-Sim PTX:   texture cache linesize = 128
GPGPU-Sim PTX:   Tx = 4; Ty = 2, Tx_numbits = 2, Ty_numbits = 1
GPGPU-Sim PTX:   Texel size = 16 bytes; texel_size_numbits = 4
GPGPU-Sim PTX:   Binding texture to array starting at devPtr32 = 0x80024000
GPGPU-Sim PTX:   Texel size = 16 bytes
GPGPU-Sim PTX: devPtr = 0xffffffff80024000
GPGPU-Sim PTX: in cudaBindTexture: sizeof(struct textureReference) = 104
GPGPU-Sim PTX:   size = 393216
GPGPU-Sim PTX:   texref = 0x61eee0, array = 0x2661560
GPGPU-Sim PTX:   devPtr32 = 80024000
GPGPU-Sim PTX:   Name corresponding to textureReference: posTexture_dp
GPGPU-Sim PTX:   ChannelFormatDesc: x=32, y=32, z=32, w=32
GPGPU-Sim PTX:   Texture Normalized? = 0
GPGPU-Sim PTX:   texel size = 16
GPGPU-Sim PTX:   texture cache linesize = 128
GPGPU-Sim PTX:   Tx = 4; Ty = 2, Tx_numbits = 2, Ty_numbits = 1
GPGPU-Sim PTX:   Texel size = 16 bytes; texel_size_numbits = 4
GPGPU-Sim PTX:   Binding texture to array starting at devPtr32 = 0x80024000
GPGPU-Sim PTX:   Texel size = 16 bytes
GPGPU-Sim PTX: devPtr = 0xffffffff80024000
  10% done
  20% done
  30% done
  40% done
  50% done
  60% done
  70% done
  80% done
  90% done
  100% done
Finished.
1570334 of 1572864 pairs within cutoff distance = 99.8391 %
event update
event update
GPGPU-Sim API: cudaEventSynchronize ** waiting for event
GPGPU-Sim API: cudaEventSynchronize ** event detected

GPGPU-Sim PTX: cudaLaunch for 0x0x406e20 (mode=performance simulation) on stream 0
GPGPU-Sim PTX: pushing kernel '_Z16compute_lj_forceIf6float36float4Lb1E12texReader_spEvPT0_PKT1_iPKiT_SA_SA_i' to stream 0, gridDim= (48,1,1) blockDim = (256,1,1) 
kernel '_Z16compute_lj_forceIf6float36float4Lb1E12texReader_spEvPT0_PKT1_iPKiT_SA_SA_i' transfer to GPU hardware scheduler
GPGPU-Sim uArch: Shader 1 bind to kernel 1 '_Z16compute_lj_forceIf6float36float4Lb1E12texReader_spEvPT0_PKT1_iPKiT_SA_SA_i'
GPGPU-Sim uArch: CTA/core = 4, limited by: regs
GPGPU-Sim uArch: core:  1, cta: 0 initialized @(1,0)
GPGPU-Sim uArch: Shader 2 bind to kernel 1 '_Z16compute_lj_forceIf6float36float4Lb1E12texReader_spEvPT0_PKT1_iPKiT_SA_SA_i'
GPGPU-Sim uArch: core:  2, cta: 0 initialized @(1,0)
GPGPU-Sim uArch: Shader 3 bind to kernel 1 '_Z16compute_lj_forceIf6float36float4Lb1E12texReader_spEvPT0_PKT1_iPKiT_SA_SA_i'
GPGPU-Sim uArch: core:  3, cta: 0 initialized @(1,0)
GPGPU-Sim uArch: Shader 4 bind to kernel 1 '_Z16compute_lj_forceIf6float36float4Lb1E12texReader_spEvPT0_PKT1_iPKiT_SA_SA_i'
GPGPU-Sim uArch: core:  4, cta: 0 initialized @(1,0)
GPGPU-Sim uArch: Shader 5 bind to kernel 1 '_Z16compute_lj_forceIf6float36float4Lb1E12texReader_spEvPT0_PKT1_iPKiT_SA_SA_i'
GPGPU-Sim uArch: core:  5, cta: 0 initialized @(1,0)
GPGPU-Sim uArch: Shader 6 bind to kernel 1 '_Z16compute_lj_forceIf6float36float4Lb1E12texReader_spEvPT0_PKT1_iPKiT_SA_SA_i'
GPGPU-Sim uArch: core:  6, cta: 0 initialized @(1,0)
GPGPU-Sim uArch: Shader 7 bind to kernel 1 '_Z16compute_lj_forceIf6float36float4Lb1E12texReader_spEvPT0_PKT1_iPKiT_SA_SA_i'
GPGPU-Sim uArch: core:  7, cta: 0 initialized @(1,0)
GPGPU-Sim uArch: Shader 8 bind to kernel 1 '_Z16compute_lj_forceIf6float36float4Lb1E12texReader_spEvPT0_PKT1_iPKiT_SA_SA_i'
GPGPU-Sim uArch: core:  8, cta: 0 initialized @(1,0)
GPGPU-Sim uArch: Shader 9 bind to kernel 1 '_Z16compute_lj_forceIf6float36float4Lb1E12texReader_spEvPT0_PKT1_iPKiT_SA_SA_i'
GPGPU-Sim uArch: core:  9, cta: 0 initialized @(1,0)
GPGPU-Sim uArch: Shader 10 bind to kernel 1 '_Z16compute_lj_forceIf6float36float4Lb1E12texReader_spEvPT0_PKT1_iPKiT_SA_SA_i'
GPGPU-Sim uArch: core: 10, cta: 0 initialized @(1,0)
GPGPU-Sim uArch: Shader 11 bind to kernel 1 '_Z16compute_lj_forceIf6float36float4Lb1E12texReader_spEvPT0_PKT1_iPKiT_SA_SA_i'
GPGPU-Sim uArch: core: 11, cta: 0 initialized @(1,0)
GPGPU-Sim uArch: Shader 12 bind to kernel 1 '_Z16compute_lj_forceIf6float36float4Lb1E12texReader_spEvPT0_PKT1_iPKiT_SA_SA_i'
GPGPU-Sim uArch: core: 12, cta: 0 initialized @(1,0)
GPGPU-Sim uArch: Shader 13 bind to kernel 1 '_Z16compute_lj_forceIf6float36float4Lb1E12texReader_spEvPT0_PKT1_iPKiT_SA_SA_i'
GPGPU-Sim uArch: core: 13, cta: 0 initialized @(1,0)
GPGPU-Sim uArch: Shader 14 bind to kernel 1 '_Z16compute_lj_forceIf6float36float4Lb1E12texReader_spEvPT0_PKT1_iPKiT_SA_SA_i'
GPGPU-Sim uArch: core: 14, cta: 0 initialized @(1,0)
GPGPU-Sim uArch: Shader 0 bind to kernel 1 '_Z16compute_lj_forceIf6float36float4Lb1E12texReader_spEvPT0_PKT1_iPKiT_SA_SA_i'
GPGPU-Sim uArch: core:  0, cta: 0 initialized @(1,0)
GPGPU-Sim uArch: core:  1, cta: 1 initialized @(2,0)
GPGPU-Sim uArch: core:  2, cta: 1 initialized @(2,0)
GPGPU-Sim uArch: core:  3, cta: 1 initialized @(2,0)
GPGPU-Sim uArch: core:  4, cta: 1 initialized @(2,0)
GPGPU-Sim uArch: core:  5, cta: 1 initialized @(2,0)
GPGPU-Sim uArch: core:  6, cta: 1 initialized @(2,0)
GPGPU-Sim uArch: core:  7, cta: 1 initialized @(2,0)
GPGPU-Sim uArch: core:  8, cta: 1 initialized @(2,0)
GPGPU-Sim uArch: core:  9, cta: 1 initialized @(2,0)
GPGPU-Sim uArch: core: 10, cta: 1 initialized @(2,0)
GPGPU-Sim uArch: core: 11, cta: 1 initialized @(2,0)
GPGPU-Sim uArch: core: 12, cta: 1 initialized @(2,0)
GPGPU-Sim uArch: core: 13, cta: 1 initialized @(2,0)
GPGPU-Sim uArch: core: 14, cta: 1 initialized @(2,0)
GPGPU-Sim uArch: core:  0, cta: 1 initialized @(2,0)
GPGPU-Sim uArch: core:  1, cta: 2 initialized @(3,0)
GPGPU-Sim uArch: core:  2, cta: 2 initialized @(3,0)
GPGPU-Sim uArch: core:  3, cta: 2 initialized @(3,0)
GPGPU-Sim uArch: core:  4, cta: 2 initialized @(3,0)
GPGPU-Sim uArch: core:  5, cta: 2 initialized @(3,0)
GPGPU-Sim uArch: core:  6, cta: 2 initialized @(3,0)
GPGPU-Sim uArch: core:  7, cta: 2 initialized @(3,0)
GPGPU-Sim uArch: core:  8, cta: 2 initialized @(3,0)
GPGPU-Sim uArch: core:  9, cta: 2 initialized @(3,0)
GPGPU-Sim uArch: core: 10, cta: 2 initialized @(3,0)
GPGPU-Sim uArch: core: 11, cta: 2 initialized @(3,0)
GPGPU-Sim uArch: core: 12, cta: 2 initialized @(3,0)
GPGPU-Sim uArch: core: 13, cta: 2 initialized @(3,0)
GPGPU-Sim uArch: core: 14, cta: 2 initialized @(3,0)
GPGPU-Sim uArch: core:  0, cta: 2 initialized @(3,0)
GPGPU-Sim uArch: core:  1, cta: 3 initialized @(4,0)
GPGPU-Sim uArch: core:  2, cta: 3 initialized @(4,0)
GPGPU-Sim uArch: core:  3, cta: 3 initialized @(4,0)
GPGPU-Sim uArch: cycles simulated: 500  inst.: 53760 (ipc=107.5) sim_rate=3840 (inst/sec) elapsed = 0:0:00:14 / Tue Mar 22 12:49:47 2016
GPGPU-Sim uArch: cycles simulated: 1000  inst.: 88544 (ipc=88.5) sim_rate=3162 (inst/sec) elapsed = 0:0:00:28 / Tue Mar 22 12:50:01 2016
GPGPU-Sim PTX: 100000 instructions simulated : ctaid=(0,0,0) tid=(191,0,0)
GPGPU-Sim PTX: 200000 instructions simulated : ctaid=(22,0,0) tid=(191,0,0)
GPGPU-Sim uArch: cycles simulated: 2000  inst.: 247552 (ipc=123.8) sim_rate=8536 (inst/sec) elapsed = 0:0:00:29 / Tue Mar 22 12:50:02 2016
GPGPU-Sim uArch: cycles simulated: 3500  inst.: 277184 (ipc=79.2) sim_rate=9239 (inst/sec) elapsed = 0:0:00:30 / Tue Mar 22 12:50:03 2016
GPGPU-Sim PTX: 300000 instructions simulated : ctaid=(8,0,0) tid=(31,0,0)
GPGPU-Sim uArch: cycles simulated: 5000  inst.: 299072 (ipc=59.8) sim_rate=9647 (inst/sec) elapsed = 0:0:00:31 / Tue Mar 22 12:50:04 2016
GPGPU-Sim uArch: cycles simulated: 6500  inst.: 322176 (ipc=49.6) sim_rate=10068 (inst/sec) elapsed = 0:0:00:32 / Tue Mar 22 12:50:05 2016
GPGPU-Sim uArch: cycles simulated: 8000  inst.: 377088 (ipc=47.1) sim_rate=11426 (inst/sec) elapsed = 0:0:00:33 / Tue Mar 22 12:50:06 2016
GPGPU-Sim PTX: 400000 instructions simulated : ctaid=(13,0,0) tid=(31,0,0)
GPGPU-Sim PTX: 500000 instructions simulated : ctaid=(2,0,0) tid=(223,0,0)
GPGPU-Sim uArch: cycles simulated: 9000  inst.: 494848 (ipc=55.0) sim_rate=14554 (inst/sec) elapsed = 0:0:00:34 / Tue Mar 22 12:50:07 2016
GPGPU-Sim uArch: cycles simulated: 10500  inst.: 556352 (ipc=53.0) sim_rate=15895 (inst/sec) elapsed = 0:0:00:35 / Tue Mar 22 12:50:08 2016
GPGPU-Sim PTX: 600000 instructions simulated : ctaid=(3,0,0) tid=(255,0,0)
GPGPU-Sim uArch: cycles simulated: 11500  inst.: 589248 (ipc=51.2) sim_rate=16368 (inst/sec) elapsed = 0:0:00:36 / Tue Mar 22 12:50:09 2016
GPGPU-Sim uArch: cycles simulated: 12500  inst.: 628096 (ipc=50.2) sim_rate=16975 (inst/sec) elapsed = 0:0:00:37 / Tue Mar 22 12:50:10 2016
GPGPU-Sim uArch: cycles simulated: 13500  inst.: 672384 (ipc=49.8) sim_rate=17694 (inst/sec) elapsed = 0:0:00:38 / Tue Mar 22 12:50:11 2016
GPGPU-Sim PTX: 700000 instructions simulated : ctaid=(5,0,0) tid=(255,0,0)
GPGPU-Sim uArch: cycles simulated: 15000  inst.: 736672 (ipc=49.1) sim_rate=18889 (inst/sec) elapsed = 0:0:00:39 / Tue Mar 22 12:50:12 2016
GPGPU-Sim PTX: 800000 instructions simulated : ctaid=(23,0,0) tid=(127,0,0)
GPGPU-Sim uArch: cycles simulated: 16000  inst.: 782304 (ipc=48.9) sim_rate=19557 (inst/sec) elapsed = 0:0:00:40 / Tue Mar 22 12:50:13 2016
GPGPU-Sim uArch: cycles simulated: 17500  inst.: 854880 (ipc=48.9) sim_rate=20850 (inst/sec) elapsed = 0:0:00:41 / Tue Mar 22 12:50:14 2016
GPGPU-Sim PTX: 900000 instructions simulated : ctaid=(12,0,0) tid=(63,0,0)
GPGPU-Sim uArch: cycles simulated: 19000  inst.: 911520 (ipc=48.0) sim_rate=21702 (inst/sec) elapsed = 0:0:00:42 / Tue Mar 22 12:50:15 2016
GPGPU-Sim PTX: 1000000 instructions simulated : ctaid=(9,0,0) tid=(159,0,0)
GPGPU-Sim uArch: cycles simulated: 20500  inst.: 977856 (ipc=47.7) sim_rate=22740 (inst/sec) elapsed = 0:0:00:43 / Tue Mar 22 12:50:16 2016
GPGPU-Sim uArch: cycles simulated: 21500  inst.: 1026080 (ipc=47.7) sim_rate=23320 (inst/sec) elapsed = 0:0:00:44 / Tue Mar 22 12:50:17 2016
GPGPU-Sim PTX: 1100000 instructions simulated : ctaid=(13,0,0) tid=(95,0,0)
GPGPU-Sim uArch: cycles simulated: 23000  inst.: 1088256 (ipc=47.3) sim_rate=24183 (inst/sec) elapsed = 0:0:00:45 / Tue Mar 22 12:50:18 2016
GPGPU-Sim uArch: cycles simulated: 24000  inst.: 1127872 (ipc=47.0) sim_rate=24518 (inst/sec) elapsed = 0:0:00:46 / Tue Mar 22 12:50:19 2016
GPGPU-Sim PTX: 1200000 instructions simulated : ctaid=(29,0,0) tid=(95,0,0)
GPGPU-Sim uArch: cycles simulated: 25000  inst.: 1162464 (ipc=46.5) sim_rate=24733 (inst/sec) elapsed = 0:0:00:47 / Tue Mar 22 12:50:20 2016
GPGPU-Sim uArch: cycles simulated: 26500  inst.: 1229280 (ipc=46.4) sim_rate=25610 (inst/sec) elapsed = 0:0:00:48 / Tue Mar 22 12:50:21 2016
GPGPU-Sim PTX: 1300000 instructions simulated : ctaid=(14,0,0) tid=(255,0,0)
GPGPU-Sim uArch: cycles simulated: 27500  inst.: 1279616 (ipc=46.5) sim_rate=26114 (inst/sec) elapsed = 0:0:00:49 / Tue Mar 22 12:50:22 2016
GPGPU-Sim uArch: cycles simulated: 28500  inst.: 1323072 (ipc=46.4) sim_rate=26461 (inst/sec) elapsed = 0:0:00:50 / Tue Mar 22 12:50:23 2016
GPGPU-Sim PTX: 1400000 instructions simulated : ctaid=(14,0,0) tid=(31,0,0)
GPGPU-Sim uArch: cycles simulated: 30000  inst.: 1394464 (ipc=46.5) sim_rate=27342 (inst/sec) elapsed = 0:0:00:51 / Tue Mar 22 12:50:24 2016
GPGPU-Sim uArch: cycles simulated: 31000  inst.: 1431040 (ipc=46.2) sim_rate=27520 (inst/sec) elapsed = 0:0:00:52 / Tue Mar 22 12:50:25 2016
GPGPU-Sim PTX: 1500000 instructions simulated : ctaid=(27,0,0) tid=(191,0,0)
GPGPU-Sim uArch: cycles simulated: 32000  inst.: 1477376 (ipc=46.2) sim_rate=27875 (inst/sec) elapsed = 0:0:00:53 / Tue Mar 22 12:50:26 2016
GPGPU-Sim uArch: cycles simulated: 33000  inst.: 1525728 (ipc=46.2) sim_rate=28254 (inst/sec) elapsed = 0:0:00:54 / Tue Mar 22 12:50:27 2016
GPGPU-Sim PTX: 1600000 instructions simulated : ctaid=(14,0,0) tid=(191,0,0)
GPGPU-Sim uArch: cycles simulated: 34500  inst.: 1597216 (ipc=46.3) sim_rate=29040 (inst/sec) elapsed = 0:0:00:55 / Tue Mar 22 12:50:28 2016
GPGPU-Sim PTX: 1700000 instructions simulated : ctaid=(20,0,0) tid=(159,0,0)
GPGPU-Sim uArch: cycles simulated: 35500  inst.: 1647680 (ipc=46.4) sim_rate=29422 (inst/sec) elapsed = 0:0:00:56 / Tue Mar 22 12:50:29 2016
GPGPU-Sim uArch: cycles simulated: 36500  inst.: 1681440 (ipc=46.1) sim_rate=29498 (inst/sec) elapsed = 0:0:00:57 / Tue Mar 22 12:50:30 2016
GPGPU-Sim PTX: 1800000 instructions simulated : ctaid=(0,0,0) tid=(63,0,0)
GPGPU-Sim uArch: cycles simulated: 38000  inst.: 1744064 (ipc=45.9) sim_rate=30070 (inst/sec) elapsed = 0:0:00:58 / Tue Mar 22 12:50:31 2016
GPGPU-Sim uArch: cycles simulated: 39500  inst.: 1812928 (ipc=45.9) sim_rate=30727 (inst/sec) elapsed = 0:0:00:59 / Tue Mar 22 12:50:32 2016
GPGPU-Sim PTX: 1900000 instructions simulated : ctaid=(4,0,0) tid=(95,0,0)
GPGPU-Sim uArch: cycles simulated: 41000  inst.: 1876160 (ipc=45.8) sim_rate=31269 (inst/sec) elapsed = 0:0:01:00 / Tue Mar 22 12:50:33 2016
GPGPU-Sim PTX: 2000000 instructions simulated : ctaid=(14,0,0) tid=(31,0,0)
GPGPU-Sim uArch: cycles simulated: 42500  inst.: 1944320 (ipc=45.7) sim_rate=31874 (inst/sec) elapsed = 0:0:01:01 / Tue Mar 22 12:50:34 2016
GPGPU-Sim uArch: cycles simulated: 43500  inst.: 1987424 (ipc=45.7) sim_rate=32055 (inst/sec) elapsed = 0:0:01:02 / Tue Mar 22 12:50:35 2016
GPGPU-Sim PTX: 2100000 instructions simulated : ctaid=(4,0,0) tid=(127,0,0)
GPGPU-Sim uArch: cycles simulated: 45000  inst.: 2054496 (ipc=45.7) sim_rate=32611 (inst/sec) elapsed = 0:0:01:03 / Tue Mar 22 12:50:36 2016
GPGPU-Sim uArch: cycles simulated: 46000  inst.: 2100608 (ipc=45.7) sim_rate=32822 (inst/sec) elapsed = 0:0:01:04 / Tue Mar 22 12:50:37 2016
GPGPU-Sim PTX: 2200000 instructions simulated : ctaid=(14,0,0) tid=(95,0,0)
GPGPU-Sim uArch: cycles simulated: 47000  inst.: 2136352 (ipc=45.5) sim_rate=32866 (inst/sec) elapsed = 0:0:01:05 / Tue Mar 22 12:50:38 2016
GPGPU-Sim uArch: cycles simulated: 48500  inst.: 2204032 (ipc=45.4) sim_rate=33394 (inst/sec) elapsed = 0:0:01:06 / Tue Mar 22 12:50:39 2016
GPGPU-Sim PTX: 2300000 instructions simulated : ctaid=(19,0,0) tid=(255,0,0)
GPGPU-Sim uArch: cycles simulated: 49500  inst.: 2250208 (ipc=45.5) sim_rate=33585 (inst/sec) elapsed = 0:0:01:07 / Tue Mar 22 12:50:40 2016
GPGPU-Sim uArch: cycles simulated: 50500  inst.: 2298048 (ipc=45.5) sim_rate=33794 (inst/sec) elapsed = 0:0:01:08 / Tue Mar 22 12:50:41 2016
GPGPU-Sim PTX: 2400000 instructions simulated : ctaid=(26,0,0) tid=(31,0,0)
GPGPU-Sim uArch: cycles simulated: 52000  inst.: 2358400 (ipc=45.4) sim_rate=34179 (inst/sec) elapsed = 0:0:01:09 / Tue Mar 22 12:50:42 2016
GPGPU-Sim uArch: cycles simulated: 53000  inst.: 2399104 (ipc=45.3) sim_rate=34272 (inst/sec) elapsed = 0:0:01:10 / Tue Mar 22 12:50:43 2016
GPGPU-Sim PTX: 2500000 instructions simulated : ctaid=(6,0,0) tid=(63,0,0)
GPGPU-Sim uArch: cycles simulated: 54000  inst.: 2454656 (ipc=45.5) sim_rate=34572 (inst/sec) elapsed = 0:0:01:11 / Tue Mar 22 12:50:44 2016
GPGPU-Sim uArch: cycles simulated: 55500  inst.: 2521952 (ipc=45.4) sim_rate=35027 (inst/sec) elapsed = 0:0:01:12 / Tue Mar 22 12:50:45 2016
GPGPU-Sim PTX: 2600000 instructions simulated : ctaid=(24,0,0) tid=(95,0,0)
GPGPU-Sim uArch: cycles simulated: 56500  inst.: 2559328 (ipc=45.3) sim_rate=35059 (inst/sec) elapsed = 0:0:01:13 / Tue Mar 22 12:50:46 2016
GPGPU-Sim uArch: cycles simulated: 57500  inst.: 2605824 (ipc=45.3) sim_rate=35213 (inst/sec) elapsed = 0:0:01:14 / Tue Mar 22 12:50:47 2016
GPGPU-Sim PTX: 2700000 instructions simulated : ctaid=(13,0,0) tid=(127,0,0)
GPGPU-Sim uArch: cycles simulated: 59000  inst.: 2665472 (ipc=45.2) sim_rate=35539 (inst/sec) elapsed = 0:0:01:15 / Tue Mar 22 12:50:48 2016
GPGPU-Sim uArch: cycles simulated: 60000  inst.: 2705344 (ipc=45.1) sim_rate=35596 (inst/sec) elapsed = 0:0:01:16 / Tue Mar 22 12:50:49 2016
GPGPU-Sim PTX: 2800000 instructions simulated : ctaid=(3,0,0) tid=(127,0,0)
GPGPU-Sim uArch: cycles simulated: 61500  inst.: 2773472 (ipc=45.1) sim_rate=36019 (inst/sec) elapsed = 0:0:01:17 / Tue Mar 22 12:50:50 2016
GPGPU-Sim PTX: 2900000 instructions simulated : ctaid=(23,0,0) tid=(127,0,0)
GPGPU-Sim uArch: cycles simulated: 62500  inst.: 2818400 (ipc=45.1) sim_rate=36133 (inst/sec) elapsed = 0:0:01:18 / Tue Mar 22 12:50:51 2016
GPGPU-Sim uArch: cycles simulated: 63500  inst.: 2860288 (ipc=45.0) sim_rate=36206 (inst/sec) elapsed = 0:0:01:19 / Tue Mar 22 12:50:52 2016
GPGPU-Sim PTX: 3000000 instructions simulated : ctaid=(2,0,0) tid=(95,0,0)
GPGPU-Sim uArch: cycles simulated: 65000  inst.: 2929408 (ipc=45.1) sim_rate=36617 (inst/sec) elapsed = 0:0:01:20 / Tue Mar 22 12:50:53 2016
GPGPU-Sim uArch: cycles simulated: 66000  inst.: 2974848 (ipc=45.1) sim_rate=36726 (inst/sec) elapsed = 0:0:01:21 / Tue Mar 22 12:50:54 2016
GPGPU-Sim PTX: 3100000 instructions simulated : ctaid=(11,0,0) tid=(223,0,0)
GPGPU-Sim uArch: cycles simulated: 67000  inst.: 3018176 (ipc=45.0) sim_rate=36807 (inst/sec) elapsed = 0:0:01:22 / Tue Mar 22 12:50:55 2016
GPGPU-Sim uArch: cycles simulated: 68500  inst.: 3071872 (ipc=44.8) sim_rate=37010 (inst/sec) elapsed = 0:0:01:23 / Tue Mar 22 12:50:56 2016
GPGPU-Sim PTX: 3200000 instructions simulated : ctaid=(9,0,0) tid=(127,0,0)
GPGPU-Sim uArch: cycles simulated: 70000  inst.: 3137440 (ipc=44.8) sim_rate=37350 (inst/sec) elapsed = 0:0:01:24 / Tue Mar 22 12:50:57 2016
GPGPU-Sim PTX: 3300000 instructions simulated : ctaid=(4,0,0) tid=(223,0,0)
GPGPU-Sim uArch: cycles simulated: 71500  inst.: 3212544 (ipc=44.9) sim_rate=37794 (inst/sec) elapsed = 0:0:01:25 / Tue Mar 22 12:50:58 2016
GPGPU-Sim uArch: cycles simulated: 73000  inst.: 3281696 (ipc=45.0) sim_rate=38159 (inst/sec) elapsed = 0:0:01:26 / Tue Mar 22 12:50:59 2016
GPGPU-Sim PTX: 3400000 instructions simulated : ctaid=(26,0,0) tid=(31,0,0)
GPGPU-Sim uArch: cycles simulated: 74500  inst.: 3341184 (ipc=44.8) sim_rate=38404 (inst/sec) elapsed = 0:0:01:27 / Tue Mar 22 12:51:00 2016
GPGPU-Sim PTX: 3500000 instructions simulated : ctaid=(10,0,0) tid=(223,0,0)
GPGPU-Sim uArch: cycles simulated: 76000  inst.: 3407296 (ipc=44.8) sim_rate=38719 (inst/sec) elapsed = 0:0:01:28 / Tue Mar 22 12:51:01 2016
GPGPU-Sim uArch: cycles simulated: 77500  inst.: 3471424 (ipc=44.8) sim_rate=39004 (inst/sec) elapsed = 0:0:01:29 / Tue Mar 22 12:51:02 2016
GPGPU-Sim PTX: 3600000 instructions simulated : ctaid=(7,0,0) tid=(255,0,0)
GPGPU-Sim uArch: cycles simulated: 79000  inst.: 3543840 (ipc=44.9) sim_rate=39376 (inst/sec) elapsed = 0:0:01:30 / Tue Mar 22 12:51:03 2016
GPGPU-Sim PTX: 3700000 instructions simulated : ctaid=(16,0,0) tid=(95,0,0)
GPGPU-Sim uArch: cycles simulated: 81000  inst.: 3611904 (ipc=44.6) sim_rate=39691 (inst/sec) elapsed = 0:0:01:31 / Tue Mar 22 12:51:04 2016
GPGPU-Sim uArch: cycles simulated: 82500  inst.: 3676576 (ipc=44.6) sim_rate=39962 (inst/sec) elapsed = 0:0:01:32 / Tue Mar 22 12:51:05 2016
GPGPU-Sim PTX: 3800000 instructions simulated : ctaid=(10,0,0) tid=(127,0,0)
GPGPU-Sim uArch: cycles simulated: 83500  inst.: 3722592 (ipc=44.6) sim_rate=40027 (inst/sec) elapsed = 0:0:01:33 / Tue Mar 22 12:51:06 2016
GPGPU-Sim PTX: 3900000 instructions simulated : ctaid=(24,0,0) tid=(159,0,0)
GPGPU-Sim uArch: cycles simulated: 85500  inst.: 3822176 (ipc=44.7) sim_rate=40661 (inst/sec) elapsed = 0:0:01:34 / Tue Mar 22 12:51:07 2016
GPGPU-Sim PTX: 4000000 instructions simulated : ctaid=(8,0,0) tid=(63,0,0)
GPGPU-Sim uArch: cycles simulated: 87000  inst.: 3884224 (ipc=44.6) sim_rate=40886 (inst/sec) elapsed = 0:0:01:35 / Tue Mar 22 12:51:08 2016
GPGPU-Sim uArch: cycles simulated: 88500  inst.: 3946208 (ipc=44.6) sim_rate=41106 (inst/sec) elapsed = 0:0:01:36 / Tue Mar 22 12:51:09 2016
GPGPU-Sim PTX: 4100000 instructions simulated : ctaid=(5,0,0) tid=(127,0,0)
GPGPU-Sim uArch: cycles simulated: 89500  inst.: 3992000 (ipc=44.6) sim_rate=41154 (inst/sec) elapsed = 0:0:01:37 / Tue Mar 22 12:51:10 2016
GPGPU-Sim uArch: cycles simulated: 91000  inst.: 4069408 (ipc=44.7) sim_rate=41524 (inst/sec) elapsed = 0:0:01:38 / Tue Mar 22 12:51:11 2016
GPGPU-Sim PTX: 4200000 instructions simulated : ctaid=(5,0,0) tid=(223,0,0)
GPGPU-Sim uArch: cycles simulated: 92500  inst.: 4133472 (ipc=44.7) sim_rate=41752 (inst/sec) elapsed = 0:0:01:39 / Tue Mar 22 12:51:12 2016
GPGPU-Sim PTX: 4300000 instructions simulated : ctaid=(1,0,0) tid=(31,0,0)
GPGPU-Sim uArch: cycles simulated: 94000  inst.: 4190272 (ipc=44.6) sim_rate=41902 (inst/sec) elapsed = 0:0:01:40 / Tue Mar 22 12:51:13 2016
GPGPU-Sim uArch: cycles simulated: 95000  inst.: 4237408 (ipc=44.6) sim_rate=41954 (inst/sec) elapsed = 0:0:01:41 / Tue Mar 22 12:51:14 2016
GPGPU-Sim PTX: 4400000 instructions simulated : ctaid=(9,0,0) tid=(63,0,0)
GPGPU-Sim uArch: cycles simulated: 96500  inst.: 4312576 (ipc=44.7) sim_rate=42280 (inst/sec) elapsed = 0:0:01:42 / Tue Mar 22 12:51:15 2016
GPGPU-Sim PTX: 4500000 instructions simulated : ctaid=(24,0,0) tid=(63,0,0)
GPGPU-Sim uArch: cycles simulated: 98000  inst.: 4373376 (ipc=44.6) sim_rate=42459 (inst/sec) elapsed = 0:0:01:43 / Tue Mar 22 12:51:16 2016
GPGPU-Sim uArch: cycles simulated: 99000  inst.: 4414176 (ipc=44.6) sim_rate=42444 (inst/sec) elapsed = 0:0:01:44 / Tue Mar 22 12:51:17 2016
GPGPU-Sim PTX: 4600000 instructions simulated : ctaid=(22,0,0) tid=(223,0,0)
GPGPU-Sim uArch: cycles simulated: 100500  inst.: 4473664 (ipc=44.5) sim_rate=42606 (inst/sec) elapsed = 0:0:01:45 / Tue Mar 22 12:51:18 2016
GPGPU-Sim uArch: cycles simulated: 102000  inst.: 4547136 (ipc=44.6) sim_rate=42897 (inst/sec) elapsed = 0:0:01:46 / Tue Mar 22 12:51:19 2016
GPGPU-Sim PTX: 4700000 instructions simulated : ctaid=(9,0,0) tid=(127,0,0)
GPGPU-Sim uArch: cycles simulated: 103000  inst.: 4591680 (ipc=44.6) sim_rate=42912 (inst/sec) elapsed = 0:0:01:47 / Tue Mar 22 12:51:20 2016
GPGPU-Sim uArch: cycles simulated: 104500  inst.: 4651968 (ipc=44.5) sim_rate=43073 (inst/sec) elapsed = 0:0:01:48 / Tue Mar 22 12:51:21 2016
GPGPU-Sim PTX: 4800000 instructions simulated : ctaid=(18,0,0) tid=(63,0,0)
GPGPU-Sim uArch: cycles simulated: 105500  inst.: 4690400 (ipc=44.5) sim_rate=43031 (inst/sec) elapsed = 0:0:01:49 / Tue Mar 22 12:51:22 2016
GPGPU-Sim uArch: cycles simulated: 106500  inst.: 4737760 (ipc=44.5) sim_rate=43070 (inst/sec) elapsed = 0:0:01:50 / Tue Mar 22 12:51:23 2016
GPGPU-Sim PTX: 4900000 instructions simulated : ctaid=(22,0,0) tid=(191,0,0)
GPGPU-Sim uArch: cycles simulated: 108000  inst.: 4809472 (ipc=44.5) sim_rate=43328 (inst/sec) elapsed = 0:0:01:51 / Tue Mar 22 12:51:24 2016
GPGPU-Sim uArch: cycles simulated: 109000  inst.: 4853600 (ipc=44.5) sim_rate=43335 (inst/sec) elapsed = 0:0:01:52 / Tue Mar 22 12:51:25 2016
GPGPU-Sim PTX: 5000000 instructions simulated : ctaid=(0,0,0) tid=(223,0,0)
GPGPU-Sim uArch: cycles simulated: 110500  inst.: 4919264 (ipc=44.5) sim_rate=43533 (inst/sec) elapsed = 0:0:01:53 / Tue Mar 22 12:51:26 2016
GPGPU-Sim PTX: 5100000 instructions simulated : ctaid=(19,0,0) tid=(223,0,0)
GPGPU-Sim uArch: cycles simulated: 111500  inst.: 4959168 (ipc=44.5) sim_rate=43501 (inst/sec) elapsed = 0:0:01:54 / Tue Mar 22 12:51:27 2016
GPGPU-Sim uArch: cycles simulated: 112500  inst.: 5004928 (ipc=44.5) sim_rate=43521 (inst/sec) elapsed = 0:0:01:55 / Tue Mar 22 12:51:28 2016
GPGPU-Sim PTX: 5200000 instructions simulated : ctaid=(9,0,0) tid=(31,0,0)
GPGPU-Sim uArch: cycles simulated: 113500  inst.: 5060448 (ipc=44.6) sim_rate=43624 (inst/sec) elapsed = 0:0:01:56 / Tue Mar 22 12:51:29 2016
GPGPU-Sim uArch: cycles simulated: 115000  inst.: 5116832 (ipc=44.5) sim_rate=43733 (inst/sec) elapsed = 0:0:01:57 / Tue Mar 22 12:51:30 2016
GPGPU-Sim PTX: 5300000 instructions simulated : ctaid=(20,0,0) tid=(31,0,0)
GPGPU-Sim uArch: cycles simulated: 116000  inst.: 5158848 (ipc=44.5) sim_rate=43719 (inst/sec) elapsed = 0:0:01:58 / Tue Mar 22 12:51:31 2016
GPGPU-Sim uArch: cycles simulated: 117500  inst.: 5223040 (ipc=44.5) sim_rate=43891 (inst/sec) elapsed = 0:0:01:59 / Tue Mar 22 12:51:32 2016
GPGPU-Sim PTX: 5400000 instructions simulated : ctaid=(19,0,0) tid=(127,0,0)
GPGPU-Sim uArch: cycles simulated: 118500  inst.: 5274208 (ipc=44.5) sim_rate=43951 (inst/sec) elapsed = 0:0:02:00 / Tue Mar 22 12:51:33 2016
GPGPU-Sim uArch: cycles simulated: 119500  inst.: 5321600 (ipc=44.5) sim_rate=43980 (inst/sec) elapsed = 0:0:02:01 / Tue Mar 22 12:51:34 2016
GPGPU-Sim PTX: 5500000 instructions simulated : ctaid=(7,0,0) tid=(31,0,0)
GPGPU-Sim uArch: cycles simulated: 120500  inst.: 5361216 (ipc=44.5) sim_rate=43944 (inst/sec) elapsed = 0:0:02:02 / Tue Mar 22 12:51:35 2016
GPGPU-Sim uArch: cycles simulated: 122000  inst.: 5424800 (ipc=44.5) sim_rate=44104 (inst/sec) elapsed = 0:0:02:03 / Tue Mar 22 12:51:36 2016
GPGPU-Sim PTX: 5600000 instructions simulated : ctaid=(10,0,0) tid=(95,0,0)
GPGPU-Sim uArch: cycles simulated: 123500  inst.: 5496736 (ipc=44.5) sim_rate=44328 (inst/sec) elapsed = 0:0:02:04 / Tue Mar 22 12:51:37 2016
GPGPU-Sim PTX: 5700000 instructions simulated : ctaid=(15,0,0) tid=(191,0,0)
GPGPU-Sim uArch: cycles simulated: 125000  inst.: 5569152 (ipc=44.6) sim_rate=44553 (inst/sec) elapsed = 0:0:02:05 / Tue Mar 22 12:51:38 2016
GPGPU-Sim uArch: cycles simulated: 126000  inst.: 5609856 (ipc=44.5) sim_rate=44522 (inst/sec) elapsed = 0:0:02:06 / Tue Mar 22 12:51:39 2016
GPGPU-Sim PTX: 5800000 instructions simulated : ctaid=(15,0,0) tid=(127,0,0)
GPGPU-Sim uArch: cycles simulated: 127000  inst.: 5646752 (ipc=44.5) sim_rate=44462 (inst/sec) elapsed = 0:0:02:07 / Tue Mar 22 12:51:40 2016
GPGPU-Sim uArch: cycles simulated: 128000  inst.: 5672416 (ipc=44.3) sim_rate=44315 (inst/sec) elapsed = 0:0:02:08 / Tue Mar 22 12:51:41 2016
GPGPU-Sim PTX: 5900000 instructions simulated : ctaid=(8,0,0) tid=(159,0,0)
GPGPU-Sim uArch: cycles simulated: 129500  inst.: 5752384 (ipc=44.4) sim_rate=44592 (inst/sec) elapsed = 0:0:02:09 / Tue Mar 22 12:51:42 2016
GPGPU-Sim uArch: cycles simulated: 130500  inst.: 5796352 (ipc=44.4) sim_rate=44587 (inst/sec) elapsed = 0:0:02:10 / Tue Mar 22 12:51:43 2016
GPGPU-Sim PTX: 6000000 instructions simulated : ctaid=(17,0,0) tid=(255,0,0)
GPGPU-Sim uArch: cycles simulated: 132000  inst.: 5873440 (ipc=44.5) sim_rate=44835 (inst/sec) elapsed = 0:0:02:11 / Tue Mar 22 12:51:44 2016
GPGPU-Sim uArch: cycles simulated: 133000  inst.: 5909056 (ipc=44.4) sim_rate=44765 (inst/sec) elapsed = 0:0:02:12 / Tue Mar 22 12:51:45 2016
GPGPU-Sim PTX: 6100000 instructions simulated : ctaid=(13,0,0) tid=(159,0,0)
GPGPU-Sim uArch: cycles simulated: 134000  inst.: 5944736 (ipc=44.4) sim_rate=44697 (inst/sec) elapsed = 0:0:02:13 / Tue Mar 22 12:51:46 2016
GPGPU-Sim PTX: 6200000 instructions simulated : ctaid=(14,0,0) tid=(95,0,0)
GPGPU-Sim uArch: cycles simulated: 135500  inst.: 6022624 (ipc=44.4) sim_rate=44944 (inst/sec) elapsed = 0:0:02:14 / Tue Mar 22 12:51:47 2016
GPGPU-Sim uArch: cycles simulated: 136500  inst.: 6067424 (ipc=44.4) sim_rate=44943 (inst/sec) elapsed = 0:0:02:15 / Tue Mar 22 12:51:48 2016
GPGPU-Sim uArch: cycles simulated: 137500  inst.: 6112928 (ipc=44.5) sim_rate=44948 (inst/sec) elapsed = 0:0:02:16 / Tue Mar 22 12:51:49 2016
GPGPU-Sim PTX: 6300000 instructions simulated : ctaid=(8,0,0) tid=(223,0,0)
GPGPU-Sim uArch: cycles simulated: 139000  inst.: 6175392 (ipc=44.4) sim_rate=45075 (inst/sec) elapsed = 0:0:02:17 / Tue Mar 22 12:51:50 2016
GPGPU-Sim uArch: cycles simulated: 140000  inst.: 6214240 (ipc=44.4) sim_rate=45030 (inst/sec) elapsed = 0:0:02:18 / Tue Mar 22 12:51:51 2016
GPGPU-Sim PTX: 6400000 instructions simulated : ctaid=(8,0,0) tid=(255,0,0)
GPGPU-Sim uArch: cycles simulated: 141000  inst.: 6259616 (ipc=44.4) sim_rate=45033 (inst/sec) elapsed = 0:0:02:19 / Tue Mar 22 12:51:52 2016
GPGPU-Sim PTX: 6500000 instructions simulated : ctaid=(14,0,0) tid=(255,0,0)
GPGPU-Sim uArch: cycles simulated: 142500  inst.: 6341248 (ipc=44.5) sim_rate=45294 (inst/sec) elapsed = 0:0:02:20 / Tue Mar 22 12:51:53 2016
GPGPU-Sim uArch: cycles simulated: 143500  inst.: 6389952 (ipc=44.5) sim_rate=45318 (inst/sec) elapsed = 0:0:02:21 / Tue Mar 22 12:51:54 2016
GPGPU-Sim PTX: 6600000 instructions simulated : ctaid=(24,0,0) tid=(63,0,0)
GPGPU-Sim uArch: cycles simulated: 145000  inst.: 6437984 (ipc=44.4) sim_rate=45337 (inst/sec) elapsed = 0:0:02:22 / Tue Mar 22 12:51:55 2016
GPGPU-Sim uArch: cycles simulated: 146500  inst.: 6500608 (ipc=44.4) sim_rate=45458 (inst/sec) elapsed = 0:0:02:23 / Tue Mar 22 12:51:56 2016
GPGPU-Sim PTX: 6700000 instructions simulated : ctaid=(22,0,0) tid=(95,0,0)
GPGPU-Sim uArch: cycles simulated: 148000  inst.: 6567328 (ipc=44.4) sim_rate=45606 (inst/sec) elapsed = 0:0:02:24 / Tue Mar 22 12:51:57 2016
GPGPU-Sim PTX: 6800000 instructions simulated : ctaid=(13,0,0) tid=(191,0,0)
GPGPU-Sim uArch: cycles simulated: 149500  inst.: 6643488 (ipc=44.4) sim_rate=45817 (inst/sec) elapsed = 0:0:02:25 / Tue Mar 22 12:51:58 2016
GPGPU-Sim uArch: cycles simulated: 151000  inst.: 6695456 (ipc=44.3) sim_rate=45859 (inst/sec) elapsed = 0:0:02:26 / Tue Mar 22 12:51:59 2016
GPGPU-Sim PTX: 6900000 instructions simulated : ctaid=(3,0,0) tid=(127,0,0)
GPGPU-Sim uArch: cycles simulated: 152000  inst.: 6749856 (ipc=44.4) sim_rate=45917 (inst/sec) elapsed = 0:0:02:27 / Tue Mar 22 12:52:00 2016
GPGPU-Sim PTX: 7000000 instructions simulated : ctaid=(23,0,0) tid=(63,0,0)
GPGPU-Sim uArch: cycles simulated: 153500  inst.: 6811936 (ipc=44.4) sim_rate=46026 (inst/sec) elapsed = 0:0:02:28 / Tue Mar 22 12:52:01 2016
GPGPU-Sim uArch: cycles simulated: 154500  inst.: 6850560 (ipc=44.3) sim_rate=45976 (inst/sec) elapsed = 0:0:02:29 / Tue Mar 22 12:52:02 2016
GPGPU-Sim PTX: 7100000 instructions simulated : ctaid=(14,0,0) tid=(127,0,0)
GPGPU-Sim uArch: cycles simulated: 156000  inst.: 6918592 (ipc=44.3) sim_rate=46123 (inst/sec) elapsed = 0:0:02:30 / Tue Mar 22 12:52:03 2016
GPGPU-Sim uArch: cycles simulated: 157000  inst.: 6959904 (ipc=44.3) sim_rate=46092 (inst/sec) elapsed = 0:0:02:31 / Tue Mar 22 12:52:04 2016
GPGPU-Sim PTX: 7200000 instructions simulated : ctaid=(25,0,0) tid=(191,0,0)
GPGPU-Sim uArch: cycles simulated: 158000  inst.: 7008960 (ipc=44.4) sim_rate=46111 (inst/sec) elapsed = 0:0:02:32 / Tue Mar 22 12:52:05 2016
GPGPU-Sim uArch: cycles simulated: 159500  inst.: 7069696 (ipc=44.3) sim_rate=46207 (inst/sec) elapsed = 0:0:02:33 / Tue Mar 22 12:52:06 2016
GPGPU-Sim PTX: 7300000 instructions simulated : ctaid=(14,0,0) tid=(223,0,0)
GPGPU-Sim uArch: cycles simulated: 161000  inst.: 7137600 (ipc=44.3) sim_rate=46348 (inst/sec) elapsed = 0:0:02:34 / Tue Mar 22 12:52:07 2016
GPGPU-Sim PTX: 7400000 instructions simulated : ctaid=(2,0,0) tid=(191,0,0)
GPGPU-Sim uArch: cycles simulated: 162500  inst.: 7204704 (ipc=44.3) sim_rate=46481 (inst/sec) elapsed = 0:0:02:35 / Tue Mar 22 12:52:08 2016
GPGPU-Sim uArch: cycles simulated: 164000  inst.: 7281408 (ipc=44.4) sim_rate=46675 (inst/sec) elapsed = 0:0:02:36 / Tue Mar 22 12:52:09 2016
GPGPU-Sim PTX: 7500000 instructions simulated : ctaid=(7,0,0) tid=(31,0,0)
GPGPU-Sim uArch: cycles simulated: 165000  inst.: 7327136 (ipc=44.4) sim_rate=46669 (inst/sec) elapsed = 0:0:02:37 / Tue Mar 22 12:52:10 2016
GPGPU-Sim PTX: 7600000 instructions simulated : ctaid=(20,0,0) tid=(191,0,0)
GPGPU-Sim uArch: cycles simulated: 166500  inst.: 7388544 (ipc=44.4) sim_rate=46762 (inst/sec) elapsed = 0:0:02:38 / Tue Mar 22 12:52:11 2016
GPGPU-Sim uArch: cycles simulated: 168000  inst.: 7443744 (ipc=44.3) sim_rate=46816 (inst/sec) elapsed = 0:0:02:39 / Tue Mar 22 12:52:12 2016
GPGPU-Sim PTX: 7700000 instructions simulated : ctaid=(29,0,0) tid=(63,0,0)
GPGPU-Sim uArch: cycles simulated: 169500  inst.: 7511136 (ipc=44.3) sim_rate=46944 (inst/sec) elapsed = 0:0:02:40 / Tue Mar 22 12:52:13 2016
GPGPU-Sim uArch: cycles simulated: 170500  inst.: 7559104 (ipc=44.3) sim_rate=46950 (inst/sec) elapsed = 0:0:02:41 / Tue Mar 22 12:52:14 2016
GPGPU-Sim PTX: 7800000 instructions simulated : ctaid=(1,0,0) tid=(95,0,0)
GPGPU-Sim uArch: cycles simulated: 172000  inst.: 7623872 (ipc=44.3) sim_rate=47060 (inst/sec) elapsed = 0:0:02:42 / Tue Mar 22 12:52:15 2016
GPGPU-Sim PTX: 7900000 instructions simulated : ctaid=(9,0,0) tid=(191,0,0)
GPGPU-Sim uArch: cycles simulated: 173500  inst.: 7680224 (ipc=44.3) sim_rate=47117 (inst/sec) elapsed = 0:0:02:43 / Tue Mar 22 12:52:16 2016
GPGPU-Sim uArch: cycles simulated: 174500  inst.: 7728160 (ipc=44.3) sim_rate=47122 (inst/sec) elapsed = 0:0:02:44 / Tue Mar 22 12:52:17 2016
GPGPU-Sim PTX: 8000000 instructions simulated : ctaid=(1,0,0) tid=(31,0,0)
GPGPU-Sim uArch: cycles simulated: 176000  inst.: 7794688 (ipc=44.3) sim_rate=47240 (inst/sec) elapsed = 0:0:02:45 / Tue Mar 22 12:52:18 2016
GPGPU-Sim uArch: cycles simulated: 177500  inst.: 7852768 (ipc=44.2) sim_rate=47305 (inst/sec) elapsed = 0:0:02:46 / Tue Mar 22 12:52:19 2016
GPGPU-Sim PTX: 8100000 instructions simulated : ctaid=(10,0,0) tid=(63,0,0)
GPGPU-Sim uArch: cycles simulated: 179000  inst.: 7913472 (ipc=44.2) sim_rate=47386 (inst/sec) elapsed = 0:0:02:47 / Tue Mar 22 12:52:20 2016
GPGPU-Sim PTX: 8200000 instructions simulated : ctaid=(21,0,0) tid=(95,0,0)
GPGPU-Sim uArch: cycles simulated: 180500  inst.: 7978336 (ipc=44.2) sim_rate=47490 (inst/sec) elapsed = 0:0:02:48 / Tue Mar 22 12:52:21 2016
GPGPU-Sim uArch: cycles simulated: 182000  inst.: 8053248 (ipc=44.2) sim_rate=47652 (inst/sec) elapsed = 0:0:02:49 / Tue Mar 22 12:52:22 2016
GPGPU-Sim PTX: 8300000 instructions simulated : ctaid=(1,0,0) tid=(31,0,0)
GPGPU-Sim uArch: cycles simulated: 183000  inst.: 8094112 (ipc=44.2) sim_rate=47612 (inst/sec) elapsed = 0:0:02:50 / Tue Mar 22 12:52:23 2016
GPGPU-Sim uArch: cycles simulated: 184500  inst.: 8159488 (ipc=44.2) sim_rate=47716 (inst/sec) elapsed = 0:0:02:51 / Tue Mar 22 12:52:24 2016
GPGPU-Sim PTX: 8400000 instructions simulated : ctaid=(22,0,0) tid=(95,0,0)
GPGPU-Sim uArch: cycles simulated: 186000  inst.: 8232256 (ipc=44.3) sim_rate=47861 (inst/sec) elapsed = 0:0:02:52 / Tue Mar 22 12:52:25 2016
GPGPU-Sim PTX: 8500000 instructions simulated : ctaid=(11,0,0) tid=(31,0,0)
GPGPU-Sim uArch: cycles simulated: 187500  inst.: 8301568 (ipc=44.3) sim_rate=47985 (inst/sec) elapsed = 0:0:02:53 / Tue Mar 22 12:52:26 2016
GPGPU-Sim uArch: cycles simulated: 188500  inst.: 8336096 (ipc=44.2) sim_rate=47908 (inst/sec) elapsed = 0:0:02:54 / Tue Mar 22 12:52:27 2016
GPGPU-Sim PTX: 8600000 instructions simulated : ctaid=(0,0,0) tid=(63,0,0)
GPGPU-Sim uArch: cycles simulated: 189500  inst.: 8378656 (ipc=44.2) sim_rate=47878 (inst/sec) elapsed = 0:0:02:55 / Tue Mar 22 12:52:28 2016
GPGPU-Sim uArch: cycles simulated: 191000  inst.: 8441248 (ipc=44.2) sim_rate=47961 (inst/sec) elapsed = 0:0:02:56 / Tue Mar 22 12:52:29 2016
GPGPU-Sim PTX: 8700000 instructions simulated : ctaid=(6,0,0) tid=(255,0,0)
GPGPU-Sim uArch: cycles simulated: 192000  inst.: 8489760 (ipc=44.2) sim_rate=47964 (inst/sec) elapsed = 0:0:02:57 / Tue Mar 22 12:52:30 2016
GPGPU-Sim uArch: cycles simulated: 193000  inst.: 8534144 (ipc=44.2) sim_rate=47944 (inst/sec) elapsed = 0:0:02:58 / Tue Mar 22 12:52:31 2016
GPGPU-Sim PTX: 8800000 instructions simulated : ctaid=(24,0,0) tid=(223,0,0)
GPGPU-Sim uArch: cycles simulated: 194500  inst.: 8600160 (ipc=44.2) sim_rate=48045 (inst/sec) elapsed = 0:0:02:59 / Tue Mar 22 12:52:32 2016
GPGPU-Sim uArch: cycles simulated: 195500  inst.: 8645920 (ipc=44.2) sim_rate=48032 (inst/sec) elapsed = 0:0:03:00 / Tue Mar 22 12:52:33 2016
GPGPU-Sim PTX: 8900000 instructions simulated : ctaid=(20,0,0) tid=(159,0,0)
GPGPU-Sim uArch: cycles simulated: 196500  inst.: 8684096 (ipc=44.2) sim_rate=47978 (inst/sec) elapsed = 0:0:03:01 / Tue Mar 22 12:52:34 2016
GPGPU-Sim uArch: cycles simulated: 198000  inst.: 8739424 (ipc=44.1) sim_rate=48018 (inst/sec) elapsed = 0:0:03:02 / Tue Mar 22 12:52:35 2016
GPGPU-Sim PTX: 9000000 instructions simulated : ctaid=(25,0,0) tid=(223,0,0)
GPGPU-Sim uArch: cycles simulated: 199500  inst.: 8812256 (ipc=44.2) sim_rate=48154 (inst/sec) elapsed = 0:0:03:03 / Tue Mar 22 12:52:36 2016
GPGPU-Sim PTX: 9100000 instructions simulated : ctaid=(28,0,0) tid=(63,0,0)
GPGPU-Sim uArch: cycles simulated: 200500  inst.: 8852864 (ipc=44.2) sim_rate=48113 (inst/sec) elapsed = 0:0:03:04 / Tue Mar 22 12:52:37 2016
GPGPU-Sim uArch: cycles simulated: 202000  inst.: 8913280 (ipc=44.1) sim_rate=48179 (inst/sec) elapsed = 0:0:03:05 / Tue Mar 22 12:52:38 2016
GPGPU-Sim PTX: 9200000 instructions simulated : ctaid=(8,0,0) tid=(63,0,0)
GPGPU-Sim uArch: cycles simulated: 203000  inst.: 8958048 (ipc=44.1) sim_rate=48161 (inst/sec) elapsed = 0:0:03:06 / Tue Mar 22 12:52:39 2016
GPGPU-Sim uArch: cycles simulated: 204000  inst.: 9001728 (ipc=44.1) sim_rate=48137 (inst/sec) elapsed = 0:0:03:07 / Tue Mar 22 12:52:40 2016
GPGPU-Sim PTX: 9300000 instructions simulated : ctaid=(9,0,0) tid=(159,0,0)
GPGPU-Sim uArch: cycles simulated: 205500  inst.: 9074944 (ipc=44.2) sim_rate=48270 (inst/sec) elapsed = 0:0:03:08 / Tue Mar 22 12:52:41 2016
GPGPU-Sim PTX: 9400000 instructions simulated : ctaid=(12,0,0) tid=(255,0,0)
GPGPU-Sim uArch: cycles simulated: 207000  inst.: 9145408 (ipc=44.2) sim_rate=48388 (inst/sec) elapsed = 0:0:03:09 / Tue Mar 22 12:52:42 2016
GPGPU-Sim uArch: cycles simulated: 208500  inst.: 9204640 (ipc=44.1) sim_rate=48445 (inst/sec) elapsed = 0:0:03:10 / Tue Mar 22 12:52:43 2016
GPGPU-Sim PTX: 9500000 instructions simulated : ctaid=(7,0,0) tid=(31,0,0)
GPGPU-Sim uArch: cycles simulated: 209500  inst.: 9247008 (ipc=44.1) sim_rate=48413 (inst/sec) elapsed = 0:0:03:11 / Tue Mar 22 12:52:44 2016
GPGPU-Sim uArch: cycles simulated: 211000  inst.: 9311968 (ipc=44.1) sim_rate=48499 (inst/sec) elapsed = 0:0:03:12 / Tue Mar 22 12:52:45 2016
GPGPU-Sim PTX: 9600000 instructions simulated : ctaid=(9,0,0) tid=(31,0,0)
GPGPU-Sim uArch: cycles simulated: 212000  inst.: 9363072 (ipc=44.2) sim_rate=48513 (inst/sec) elapsed = 0:0:03:13 / Tue Mar 22 12:52:46 2016
GPGPU-Sim uArch: cycles simulated: 213000  inst.: 9401248 (ipc=44.1) sim_rate=48460 (inst/sec) elapsed = 0:0:03:14 / Tue Mar 22 12:52:47 2016
GPGPU-Sim PTX: 9700000 instructions simulated : ctaid=(2,0,0) tid=(127,0,0)
GPGPU-Sim uArch: cycles simulated: 214000  inst.: 9442944 (ipc=44.1) sim_rate=48425 (inst/sec) elapsed = 0:0:03:15 / Tue Mar 22 12:52:48 2016
GPGPU-Sim uArch: cycles simulated: 215500  inst.: 9512864 (ipc=44.1) sim_rate=48535 (inst/sec) elapsed = 0:0:03:16 / Tue Mar 22 12:52:49 2016
GPGPU-Sim PTX: 9800000 instructions simulated : ctaid=(0,0,0) tid=(63,0,0)
GPGPU-Sim uArch: cycles simulated: 216500  inst.: 9558208 (ipc=44.1) sim_rate=48518 (inst/sec) elapsed = 0:0:03:17 / Tue Mar 22 12:52:50 2016
GPGPU-Sim PTX: 9900000 instructions simulated : ctaid=(18,0,0) tid=(159,0,0)
GPGPU-Sim uArch: cycles simulated: 218000  inst.: 9621984 (ipc=44.1) sim_rate=48595 (inst/sec) elapsed = 0:0:03:18 / Tue Mar 22 12:52:51 2016
GPGPU-Sim uArch: cycles simulated: 219000  inst.: 9649696 (ipc=44.1) sim_rate=48490 (inst/sec) elapsed = 0:0:03:19 / Tue Mar 22 12:52:52 2016
GPGPU-Sim PTX: 10000000 instructions simulated : ctaid=(11,0,0) tid=(31,0,0)
GPGPU-Sim uArch: cycles simulated: 220500  inst.: 9720064 (ipc=44.1) sim_rate=48600 (inst/sec) elapsed = 0:0:03:20 / Tue Mar 22 12:52:53 2016
GPGPU-Sim uArch: cycles simulated: 222000  inst.: 9796320 (ipc=44.1) sim_rate=48737 (inst/sec) elapsed = 0:0:03:21 / Tue Mar 22 12:52:54 2016
GPGPU-Sim PTX: 10100000 instructions simulated : ctaid=(28,0,0) tid=(31,0,0)
GPGPU-Sim uArch: cycles simulated: 223000  inst.: 9835264 (ipc=44.1) sim_rate=48689 (inst/sec) elapsed = 0:0:03:22 / Tue Mar 22 12:52:55 2016
GPGPU-Sim uArch: cycles simulated: 224000  inst.: 9865408 (ipc=44.0) sim_rate=48598 (inst/sec) elapsed = 0:0:03:23 / Tue Mar 22 12:52:56 2016
GPGPU-Sim PTX: 10200000 instructions simulated : ctaid=(27,0,0) tid=(159,0,0)
GPGPU-Sim uArch: cycles simulated: 225500  inst.: 9933728 (ipc=44.1) sim_rate=48694 (inst/sec) elapsed = 0:0:03:24 / Tue Mar 22 12:52:57 2016
GPGPU-Sim uArch: cycles simulated: 227000  inst.: 9998496 (ipc=44.0) sim_rate=48773 (inst/sec) elapsed = 0:0:03:25 / Tue Mar 22 12:52:58 2016
GPGPU-Sim PTX: 10300000 instructions simulated : ctaid=(2,0,0) tid=(31,0,0)
GPGPU-Sim uArch: cycles simulated: 228500  inst.: 10062944 (ipc=44.0) sim_rate=48849 (inst/sec) elapsed = 0:0:03:26 / Tue Mar 22 12:52:59 2016
GPGPU-Sim PTX: 10400000 instructions simulated : ctaid=(9,0,0) tid=(63,0,0)
GPGPU-Sim uArch: cycles simulated: 229500  inst.: 10106240 (ipc=44.0) sim_rate=48822 (inst/sec) elapsed = 0:0:03:27 / Tue Mar 22 12:53:00 2016
GPGPU-Sim uArch: cycles simulated: 231000  inst.: 10166720 (ipc=44.0) sim_rate=48878 (inst/sec) elapsed = 0:0:03:28 / Tue Mar 22 12:53:01 2016
GPGPU-Sim PTX: 10500000 instructions simulated : ctaid=(26,0,0) tid=(31,0,0)
GPGPU-Sim uArch: cycles simulated: 232500  inst.: 10226208 (ipc=44.0) sim_rate=48929 (inst/sec) elapsed = 0:0:03:29 / Tue Mar 22 12:53:02 2016
GPGPU-Sim PTX: 10600000 instructions simulated : ctaid=(10,0,0) tid=(127,0,0)
GPGPU-Sim uArch: cycles simulated: 234000  inst.: 10302880 (ipc=44.0) sim_rate=49061 (inst/sec) elapsed = 0:0:03:30 / Tue Mar 22 12:53:03 2016
GPGPU-Sim uArch: cycles simulated: 235500  inst.: 10361600 (ipc=44.0) sim_rate=49107 (inst/sec) elapsed = 0:0:03:31 / Tue Mar 22 12:53:04 2016
GPGPU-Sim PTX: 10700000 instructions simulated : ctaid=(0,0,0) tid=(159,0,0)
GPGPU-Sim uArch: cycles simulated: 236500  inst.: 10407200 (ipc=44.0) sim_rate=49090 (inst/sec) elapsed = 0:0:03:32 / Tue Mar 22 12:53:05 2016
GPGPU-Sim uArch: cycles simulated: 238000  inst.: 10475424 (ipc=44.0) sim_rate=49180 (inst/sec) elapsed = 0:0:03:33 / Tue Mar 22 12:53:06 2016
GPGPU-Sim PTX: 10800000 instructions simulated : ctaid=(0,0,0) tid=(191,0,0)
GPGPU-Sim uArch: cycles simulated: 239500  inst.: 10545504 (ipc=44.0) sim_rate=49278 (inst/sec) elapsed = 0:0:03:34 / Tue Mar 22 12:53:07 2016
GPGPU-Sim PTX: 10900000 instructions simulated : ctaid=(20,0,0) tid=(191,0,0)
GPGPU-Sim uArch: cycles simulated: 241000  inst.: 10602464 (ipc=44.0) sim_rate=49313 (inst/sec) elapsed = 0:0:03:35 / Tue Mar 22 12:53:08 2016
GPGPU-Sim uArch: cycles simulated: 242000  inst.: 10645248 (ipc=44.0) sim_rate=49283 (inst/sec) elapsed = 0:0:03:36 / Tue Mar 22 12:53:09 2016
GPGPU-Sim PTX: 11000000 instructions simulated : ctaid=(1,0,0) tid=(95,0,0)
GPGPU-Sim uArch: cycles simulated: 243500  inst.: 10719840 (ipc=44.0) sim_rate=49400 (inst/sec) elapsed = 0:0:03:37 / Tue Mar 22 12:53:10 2016
GPGPU-Sim uArch: cycles simulated: 244500  inst.: 10762176 (ipc=44.0) sim_rate=49367 (inst/sec) elapsed = 0:0:03:38 / Tue Mar 22 12:53:11 2016
GPGPU-Sim PTX: 11100000 instructions simulated : ctaid=(1,0,0) tid=(127,0,0)
GPGPU-Sim uArch: cycles simulated: 245500  inst.: 10806144 (ipc=44.0) sim_rate=49343 (inst/sec) elapsed = 0:0:03:39 / Tue Mar 22 12:53:12 2016
GPGPU-Sim uArch: cycles simulated: 247000  inst.: 10871744 (ipc=44.0) sim_rate=49417 (inst/sec) elapsed = 0:0:03:40 / Tue Mar 22 12:53:13 2016
GPGPU-Sim PTX: 11200000 instructions simulated : ctaid=(12,0,0) tid=(63,0,0)
GPGPU-Sim uArch: cycles simulated: 248000  inst.: 10912992 (ipc=44.0) sim_rate=49380 (inst/sec) elapsed = 0:0:03:41 / Tue Mar 22 12:53:14 2016
GPGPU-Sim PTX: 11300000 instructions simulated : ctaid=(1,0,0) tid=(255,0,0)
GPGPU-Sim uArch: cycles simulated: 249500  inst.: 10984096 (ipc=44.0) sim_rate=49477 (inst/sec) elapsed = 0:0:03:42 / Tue Mar 22 12:53:15 2016
GPGPU-Sim uArch: cycles simulated: 251000  inst.: 11040256 (ipc=44.0) sim_rate=49507 (inst/sec) elapsed = 0:0:03:43 / Tue Mar 22 12:53:16 2016
GPGPU-Sim PTX: 11400000 instructions simulated : ctaid=(4,0,0) tid=(223,0,0)
GPGPU-Sim uArch: cycles simulated: 252500  inst.: 11117312 (ipc=44.0) sim_rate=49630 (inst/sec) elapsed = 0:0:03:44 / Tue Mar 22 12:53:17 2016
GPGPU-Sim PTX: 11500000 instructions simulated : ctaid=(29,0,0) tid=(63,0,0)
GPGPU-Sim uArch: cycles simulated: 254000  inst.: 11179072 (ipc=44.0) sim_rate=49684 (inst/sec) elapsed = 0:0:03:45 / Tue Mar 22 12:53:18 2016
GPGPU-Sim uArch: cycles simulated: 255000  inst.: 11220288 (ipc=44.0) sim_rate=49647 (inst/sec) elapsed = 0:0:03:46 / Tue Mar 22 12:53:19 2016
GPGPU-Sim PTX: 11600000 instructions simulated : ctaid=(16,0,0) tid=(191,0,0)
GPGPU-Sim uArch: cycles simulated: 256500  inst.: 11285440 (ipc=44.0) sim_rate=49715 (inst/sec) elapsed = 0:0:03:47 / Tue Mar 22 12:53:20 2016
GPGPU-Sim uArch: cycles simulated: 258000  inst.: 11352256 (ipc=44.0) sim_rate=49790 (inst/sec) elapsed = 0:0:03:48 / Tue Mar 22 12:53:21 2016
GPGPU-Sim PTX: 11700000 instructions simulated : ctaid=(25,0,0) tid=(31,0,0)
GPGPU-Sim uArch: cycles simulated: 259500  inst.: 11413984 (ipc=44.0) sim_rate=49842 (inst/sec) elapsed = 0:0:03:49 / Tue Mar 22 12:53:22 2016
GPGPU-Sim uArch: cycles simulated: 260500  inst.: 11457312 (ipc=44.0) sim_rate=49814 (inst/sec) elapsed = 0:0:03:50 / Tue Mar 22 12:53:23 2016
GPGPU-Sim PTX: 11800000 instructions simulated : ctaid=(23,0,0) tid=(159,0,0)
GPGPU-Sim uArch: cycles simulated: 262000  inst.: 11521216 (ipc=44.0) sim_rate=49875 (inst/sec) elapsed = 0:0:03:51 / Tue Mar 22 12:53:24 2016
GPGPU-Sim PTX: 11900000 instructions simulated : ctaid=(14,0,0) tid=(95,0,0)
GPGPU-Sim uArch: cycles simulated: 263000  inst.: 11565472 (ipc=44.0) sim_rate=49851 (inst/sec) elapsed = 0:0:03:52 / Tue Mar 22 12:53:25 2016
GPGPU-Sim uArch: cycles simulated: 264500  inst.: 11629568 (ipc=44.0) sim_rate=49912 (inst/sec) elapsed = 0:0:03:53 / Tue Mar 22 12:53:26 2016
GPGPU-Sim PTX: 12000000 instructions simulated : ctaid=(15,0,0) tid=(223,0,0)
GPGPU-Sim uArch: cycles simulated: 265500  inst.: 11670784 (ipc=44.0) sim_rate=49875 (inst/sec) elapsed = 0:0:03:54 / Tue Mar 22 12:53:27 2016
GPGPU-Sim uArch: cycles simulated: 266500  inst.: 11709536 (ipc=43.9) sim_rate=49827 (inst/sec) elapsed = 0:0:03:55 / Tue Mar 22 12:53:28 2016
GPGPU-Sim PTX: 12100000 instructions simulated : ctaid=(27,0,0) tid=(63,0,0)
GPGPU-Sim uArch: cycles simulated: 268000  inst.: 11782432 (ipc=44.0) sim_rate=49925 (inst/sec) elapsed = 0:0:03:56 / Tue Mar 22 12:53:29 2016
GPGPU-Sim uArch: cycles simulated: 269500  inst.: 11839456 (ipc=43.9) sim_rate=49955 (inst/sec) elapsed = 0:0:03:57 / Tue Mar 22 12:53:30 2016
GPGPU-Sim PTX: 12200000 instructions simulated : ctaid=(26,0,0) tid=(127,0,0)
GPGPU-Sim uArch: cycles simulated: 271000  inst.: 11899264 (ipc=43.9) sim_rate=49996 (inst/sec) elapsed = 0:0:03:58 / Tue Mar 22 12:53:31 2016
GPGPU-Sim PTX: 12300000 instructions simulated : ctaid=(26,0,0) tid=(223,0,0)
GPGPU-Sim uArch: cycles simulated: 272500  inst.: 11969792 (ipc=43.9) sim_rate=50082 (inst/sec) elapsed = 0:0:03:59 / Tue Mar 22 12:53:32 2016
GPGPU-Sim uArch: cycles simulated: 274000  inst.: 12046624 (ipc=44.0) sim_rate=50194 (inst/sec) elapsed = 0:0:04:00 / Tue Mar 22 12:53:33 2016
GPGPU-Sim PTX: 12400000 instructions simulated : ctaid=(11,0,0) tid=(223,0,0)
GPGPU-Sim uArch: cycles simulated: 275500  inst.: 12098624 (ipc=43.9) sim_rate=50201 (inst/sec) elapsed = 0:0:04:01 / Tue Mar 22 12:53:34 2016
GPGPU-Sim PTX: 12500000 instructions simulated : ctaid=(26,0,0) tid=(95,0,0)
GPGPU-Sim uArch: cycles simulated: 277000  inst.: 12158528 (ipc=43.9) sim_rate=50241 (inst/sec) elapsed = 0:0:04:02 / Tue Mar 22 12:53:35 2016
GPGPU-Sim uArch: cycles simulated: 278500  inst.: 12231520 (ipc=43.9) sim_rate=50335 (inst/sec) elapsed = 0:0:04:03 / Tue Mar 22 12:53:36 2016
GPGPU-Sim PTX: 12600000 instructions simulated : ctaid=(16,0,0) tid=(95,0,0)
GPGPU-Sim uArch: cycles simulated: 280000  inst.: 12304320 (ipc=43.9) sim_rate=50427 (inst/sec) elapsed = 0:0:04:04 / Tue Mar 22 12:53:37 2016
GPGPU-Sim PTX: 12700000 instructions simulated : ctaid=(23,0,0) tid=(127,0,0)
GPGPU-Sim uArch: cycles simulated: 281000  inst.: 12345440 (ipc=43.9) sim_rate=50389 (inst/sec) elapsed = 0:0:04:05 / Tue Mar 22 12:53:38 2016
GPGPU-Sim uArch: cycles simulated: 283000  inst.: 12423712 (ipc=43.9) sim_rate=50502 (inst/sec) elapsed = 0:0:04:06 / Tue Mar 22 12:53:39 2016
GPGPU-Sim PTX: 12800000 instructions simulated : ctaid=(3,0,0) tid=(223,0,0)
GPGPU-Sim uArch: cycles simulated: 284500  inst.: 12495616 (ipc=43.9) sim_rate=50589 (inst/sec) elapsed = 0:0:04:07 / Tue Mar 22 12:53:40 2016
GPGPU-Sim PTX: 12900000 instructions simulated : ctaid=(6,0,0) tid=(159,0,0)
GPGPU-Sim uArch: cycles simulated: 286000  inst.: 12564736 (ipc=43.9) sim_rate=50664 (inst/sec) elapsed = 0:0:04:08 / Tue Mar 22 12:53:41 2016
GPGPU-Sim uArch: cycles simulated: 287500  inst.: 12621440 (ipc=43.9) sim_rate=50688 (inst/sec) elapsed = 0:0:04:09 / Tue Mar 22 12:53:42 2016
GPGPU-Sim PTX: 13000000 instructions simulated : ctaid=(5,0,0) tid=(255,0,0)
GPGPU-Sim uArch: cycles simulated: 289000  inst.: 12682464 (ipc=43.9) sim_rate=50729 (inst/sec) elapsed = 0:0:04:10 / Tue Mar 22 12:53:43 2016
GPGPU-Sim PTX: 13100000 instructions simulated : ctaid=(6,0,0) tid=(159,0,0)
GPGPU-Sim uArch: cycles simulated: 290500  inst.: 12753504 (ipc=43.9) sim_rate=50810 (inst/sec) elapsed = 0:0:04:11 / Tue Mar 22 12:53:44 2016
GPGPU-Sim uArch: cycles simulated: 291500  inst.: 12791904 (ipc=43.9) sim_rate=50761 (inst/sec) elapsed = 0:0:04:12 / Tue Mar 22 12:53:45 2016
GPGPU-Sim PTX: 13200000 instructions simulated : ctaid=(15,0,0) tid=(159,0,0)
GPGPU-Sim uArch: cycles simulated: 293000  inst.: 12857184 (ipc=43.9) sim_rate=50818 (inst/sec) elapsed = 0:0:04:13 / Tue Mar 22 12:53:46 2016
GPGPU-Sim PTX: 13300000 instructions simulated : ctaid=(11,0,0) tid=(95,0,0)
GPGPU-Sim uArch: cycles simulated: 295000  inst.: 12943968 (ipc=43.9) sim_rate=50960 (inst/sec) elapsed = 0:0:04:14 / Tue Mar 22 12:53:47 2016
GPGPU-Sim uArch: cycles simulated: 296500  inst.: 13002176 (ipc=43.9) sim_rate=50988 (inst/sec) elapsed = 0:0:04:15 / Tue Mar 22 12:53:48 2016
GPGPU-Sim PTX: 13400000 instructions simulated : ctaid=(29,0,0) tid=(95,0,0)
GPGPU-Sim uArch: cycles simulated: 298000  inst.: 13065536 (ipc=43.8) sim_rate=51037 (inst/sec) elapsed = 0:0:04:16 / Tue Mar 22 12:53:49 2016
GPGPU-Sim PTX: 13500000 instructions simulated : ctaid=(27,0,0) tid=(127,0,0)
GPGPU-Sim uArch: cycles simulated: 299500  inst.: 13121472 (ipc=43.8) sim_rate=51056 (inst/sec) elapsed = 0:0:04:17 / Tue Mar 22 12:53:50 2016
GPGPU-Sim uArch: cycles simulated: 301000  inst.: 13204000 (ipc=43.9) sim_rate=51178 (inst/sec) elapsed = 0:0:04:18 / Tue Mar 22 12:53:51 2016
GPGPU-Sim PTX: 13600000 instructions simulated : ctaid=(13,0,0) tid=(191,0,0)
GPGPU-Sim uArch: cycles simulated: 302500  inst.: 13269024 (ipc=43.9) sim_rate=51231 (inst/sec) elapsed = 0:0:04:19 / Tue Mar 22 12:53:52 2016
GPGPU-Sim PTX: 13700000 instructions simulated : ctaid=(8,0,0) tid=(159,0,0)
GPGPU-Sim uArch: cycles simulated: 304000  inst.: 13329568 (ipc=43.8) sim_rate=51267 (inst/sec) elapsed = 0:0:04:20 / Tue Mar 22 12:53:53 2016
GPGPU-Sim uArch: cycles simulated: 305500  inst.: 13394816 (ipc=43.8) sim_rate=51321 (inst/sec) elapsed = 0:0:04:21 / Tue Mar 22 12:53:54 2016
GPGPU-Sim PTX: 13800000 instructions simulated : ctaid=(20,0,0) tid=(31,0,0)
GPGPU-Sim uArch: cycles simulated: 307000  inst.: 13462112 (ipc=43.9) sim_rate=51382 (inst/sec) elapsed = 0:0:04:22 / Tue Mar 22 12:53:55 2016
GPGPU-Sim PTX: 13900000 instructions simulated : ctaid=(3,0,0) tid=(31,0,0)
GPGPU-Sim uArch: cycles simulated: 308500  inst.: 13527936 (ipc=43.9) sim_rate=51437 (inst/sec) elapsed = 0:0:04:23 / Tue Mar 22 12:53:56 2016
GPGPU-Sim uArch: cycles simulated: 310000  inst.: 13587648 (ipc=43.8) sim_rate=51468 (inst/sec) elapsed = 0:0:04:24 / Tue Mar 22 12:53:57 2016
GPGPU-Sim PTX: 14000000 instructions simulated : ctaid=(0,0,0) tid=(31,0,0)
GPGPU-Sim uArch: cycles simulated: 311500  inst.: 13650688 (ipc=43.8) sim_rate=51512 (inst/sec) elapsed = 0:0:04:25 / Tue Mar 22 12:53:58 2016
GPGPU-Sim PTX: 14100000 instructions simulated : ctaid=(20,0,0) tid=(31,0,0)
GPGPU-Sim uArch: cycles simulated: 313000  inst.: 13718432 (ipc=43.8) sim_rate=51573 (inst/sec) elapsed = 0:0:04:26 / Tue Mar 22 12:53:59 2016
GPGPU-Sim uArch: cycles simulated: 314500  inst.: 13783328 (ipc=43.8) sim_rate=51622 (inst/sec) elapsed = 0:0:04:27 / Tue Mar 22 12:54:00 2016
GPGPU-Sim PTX: 14200000 instructions simulated : ctaid=(4,0,0) tid=(223,0,0)
GPGPU-Sim uArch: cycles simulated: 315500  inst.: 13824640 (ipc=43.8) sim_rate=51584 (inst/sec) elapsed = 0:0:04:28 / Tue Mar 22 12:54:01 2016
GPGPU-Sim uArch: cycles simulated: 316500  inst.: 13871808 (ipc=43.8) sim_rate=51568 (inst/sec) elapsed = 0:0:04:29 / Tue Mar 22 12:54:02 2016
GPGPU-Sim PTX: 14300000 instructions simulated : ctaid=(26,0,0) tid=(191,0,0)
GPGPU-Sim uArch: cycles simulated: 318000  inst.: 13945312 (ipc=43.9) sim_rate=51649 (inst/sec) elapsed = 0:0:04:30 / Tue Mar 22 12:54:03 2016
GPGPU-Sim uArch: cycles simulated: 319000  inst.: 13977184 (ipc=43.8) sim_rate=51576 (inst/sec) elapsed = 0:0:04:31 / Tue Mar 22 12:54:04 2016
GPGPU-Sim PTX: 14400000 instructions simulated : ctaid=(22,0,0) tid=(255,0,0)
GPGPU-Sim uArch: cycles simulated: 320500  inst.: 14043360 (ipc=43.8) sim_rate=51630 (inst/sec) elapsed = 0:0:04:32 / Tue Mar 22 12:54:05 2016
GPGPU-Sim uArch: cycles simulated: 321500  inst.: 14088640 (ipc=43.8) sim_rate=51606 (inst/sec) elapsed = 0:0:04:33 / Tue Mar 22 12:54:06 2016
GPGPU-Sim PTX: 14500000 instructions simulated : ctaid=(3,0,0) tid=(255,0,0)
GPGPU-Sim uArch: cycles simulated: 322500  inst.: 14132832 (ipc=43.8) sim_rate=51579 (inst/sec) elapsed = 0:0:04:34 / Tue Mar 22 12:54:07 2016
GPGPU-Sim PTX: 14600000 instructions simulated : ctaid=(14,0,0) tid=(159,0,0)
GPGPU-Sim uArch: cycles simulated: 324000  inst.: 14195424 (ipc=43.8) sim_rate=51619 (inst/sec) elapsed = 0:0:04:35 / Tue Mar 22 12:54:08 2016
GPGPU-Sim uArch: cycles simulated: 325000  inst.: 14242400 (ipc=43.8) sim_rate=51602 (inst/sec) elapsed = 0:0:04:36 / Tue Mar 22 12:54:09 2016
GPGPU-Sim PTX: 14700000 instructions simulated : ctaid=(19,0,0) tid=(159,0,0)
GPGPU-Sim uArch: cycles simulated: 326000  inst.: 14286048 (ipc=43.8) sim_rate=51574 (inst/sec) elapsed = 0:0:04:37 / Tue Mar 22 12:54:10 2016
GPGPU-Sim uArch: cycles simulated: 327500  inst.: 14343872 (ipc=43.8) sim_rate=51596 (inst/sec) elapsed = 0:0:04:38 / Tue Mar 22 12:54:11 2016
GPGPU-Sim PTX: 14800000 instructions simulated : ctaid=(21,0,0) tid=(63,0,0)
GPGPU-Sim uArch: cycles simulated: 329500  inst.: 14433952 (ipc=43.8) sim_rate=51734 (inst/sec) elapsed = 0:0:04:39 / Tue Mar 22 12:54:12 2016
GPGPU-Sim PTX: 14900000 instructions simulated : ctaid=(27,0,0) tid=(127,0,0)
GPGPU-Sim uArch: cycles simulated: 331000  inst.: 14492032 (ipc=43.8) sim_rate=51757 (inst/sec) elapsed = 0:0:04:40 / Tue Mar 22 12:54:13 2016
GPGPU-Sim uArch: cycles simulated: 332000  inst.: 14534144 (ipc=43.8) sim_rate=51722 (inst/sec) elapsed = 0:0:04:41 / Tue Mar 22 12:54:14 2016
GPGPU-Sim PTX: 15000000 instructions simulated : ctaid=(9,0,0) tid=(63,0,0)
GPGPU-Sim uArch: cycles simulated: 333500  inst.: 14595136 (ipc=43.8) sim_rate=51755 (inst/sec) elapsed = 0:0:04:42 / Tue Mar 22 12:54:15 2016
GPGPU-Sim uArch: cycles simulated: 335000  inst.: 14668992 (ipc=43.8) sim_rate=51833 (inst/sec) elapsed = 0:0:04:43 / Tue Mar 22 12:54:16 2016
GPGPU-Sim PTX: 15100000 instructions simulated : ctaid=(23,0,0) tid=(159,0,0)
GPGPU-Sim uArch: cycles simulated: 336500  inst.: 14738912 (ipc=43.8) sim_rate=51897 (inst/sec) elapsed = 0:0:04:44 / Tue Mar 22 12:54:17 2016
GPGPU-Sim PTX: 15200000 instructions simulated : ctaid=(22,0,0) tid=(31,0,0)
GPGPU-Sim uArch: cycles simulated: 337500  inst.: 14778944 (ipc=43.8) sim_rate=51855 (inst/sec) elapsed = 0:0:04:45 / Tue Mar 22 12:54:18 2016
GPGPU-Sim uArch: cycles simulated: 339000  inst.: 14843616 (ipc=43.8) sim_rate=51900 (inst/sec) elapsed = 0:0:04:46 / Tue Mar 22 12:54:19 2016
GPGPU-Sim PTX: 15300000 instructions simulated : ctaid=(25,0,0) tid=(191,0,0)
GPGPU-Sim uArch: cycles simulated: 340500  inst.: 14901504 (ipc=43.8) sim_rate=51921 (inst/sec) elapsed = 0:0:04:47 / Tue Mar 22 12:54:20 2016
GPGPU-Sim PTX: 15400000 instructions simulated : ctaid=(21,0,0) tid=(223,0,0)
GPGPU-Sim uArch: cycles simulated: 342000  inst.: 14969728 (ipc=43.8) sim_rate=51978 (inst/sec) elapsed = 0:0:04:48 / Tue Mar 22 12:54:21 2016
GPGPU-Sim uArch: cycles simulated: 343500  inst.: 15049728 (ipc=43.8) sim_rate=52075 (inst/sec) elapsed = 0:0:04:49 / Tue Mar 22 12:54:22 2016
GPGPU-Sim PTX: 15500000 instructions simulated : ctaid=(28,0,0) tid=(63,0,0)
GPGPU-Sim uArch: cycles simulated: 344500  inst.: 15091008 (ipc=43.8) sim_rate=52037 (inst/sec) elapsed = 0:0:04:50 / Tue Mar 22 12:54:23 2016
[...]
traffic_breakdown_coretomem[GLOBAL_ACC_W] = 940032 {136:6912,}
traffic_breakdown_coretomem[INST_ACC_R] = 600 {8:75,}
traffic_breakdown_coretomem[TEXTURE_ACC_R] = 23590072 {8:2948759,}
traffic_breakdown_memtocore[CONST_ACC_R] = 1080 {72:15,}
traffic_breakdown_memtocore[GLOBAL_ACC_R] = 13787136 {136:101376,}
traffic_breakdown_memtocore[GLOBAL_ACC_W] = 55296 {8:6912,}
traffic_breakdown_memtocore[INST_ACC_R] = 10200 {136:75,}
traffic_breakdown_memtocore[TEXTURE_ACC_R] = 401031224 {136:2948759,}
maxmrqlatency = 233 
maxdqlatency = 0 
maxmflatency = 7098 
averagemflatency = 529 
max_icnt2mem_latency = 8239 
max_icnt2sh_latency = 2833137 
mrq_lat_table:95252 	2324 	1156 	1392 	5642 	1771 	334 	78 	0 	0 	0 	0 	0 	0 	0 	0 	0 	0 	0 	0 	0 	0 	0 	0 	0 	0 	0 	0 	0 	0 	0 	0 	
dq_lat_table:0 	0 	0 	0 	0 	0 	0 	0 	0 	0 	0 	0 	0 	0 	0 	0 	0 	0 	0 	0 	0 	0 	0 	0 	0 	0 	0 	0 	0 	0 	0 	0 	
mf_lat_table:0 	0 	0 	0 	3053 	12431 	43229 	235042 	1196612 	1515993 	38315 	11041 	1346 	0 	0 	0 	0 	0 	0 	0 	0 	0 	0 	0 	0 	0 	0 	0 	0 	0 	0 	0 	
icnt2mem_lat_table:0 	0 	0 	54767 	54830 	84679 	171973 	663174 	1540936 	464805 	13727 	7456 	789 	1 	0 	0 	0 	0 	0 	0 	0 	0 	0 	0 	
icnt2sh_lat_table:0 	0 	0 	39442 	1576289 	1202883 	209975 	21536 	25 	0 	0 	0 	0 	0 	0 	0 	0 	0 	0 	2160 	1333 	3419 	0 	0 	
mf_lat_pw_table:0 	0 	0 	0 	0 	0 	46 	97 	1927 	3595 	0 	0 	0 	0 	0 	0 	0 	0 	0 	0 	0 	0 	0 	0 	0 	0 	0 	0 	0 	0 	0 	0 	
maximum concurrent accesses to same row:
dram[0]:        32        32        32        32        20        20        20        20        20        20        20        20        32        32        32        32 
dram[1]:        26        32        32        32        20        20        23        28        20        26        28        41        32        32        32        32 
dram[2]:        32        32        32        32        20        20        20        22        20        28        22        20        32        32        32        32 
dram[3]:        32        32        32        32        20        20        20        20        20        20        20        20        32        32        32        32 
dram[4]:        32        32        32        32        20        20        21        20        22        24        36        24        32        32        32        32 
dram[5]:        32        32        32        32        20        20        24        24        20        28        24        24        32        32        32        32 
maximum service time to same row:
dram[0]:     46884     45043     43595     42557     43956     44900     42234     45484     42887     44534     44466     45300     43111     45922     44773     44316 
dram[1]:     44385     46643     44602     45582     44554     47469     43897     45906     45122     46288     44988     45476     43748     46912     43277     47744 
dram[2]:     48409     48622     46919     45643     46365     46192     46346     48386     48639     48531     50716     48626     50591     46937     47373     47128 
dram[3]:     46066     49284     46821     49784     46354     48062     45478     47004     47527     46412     46393     47218     46736     47547     45781     48080 
dram[4]:     45760     49090     45040     49144     44783     44341     45328     49450     45617     48953     45920     49522     45881     51001     44804     48397 
dram[5]:     46224     47806     46409     47069     46372     48508     47359     48085     48389     50179     47797     49071     48119     48284     49218     47924 
average row accesses per activate:
dram[0]:  1.591592  1.617152  1.606759  1.642072  1.672282  1.700935  1.741935  1.730823  1.774468  1.735744  1.818731  1.733236  1.677778  1.643857  1.624615  1.666142 
dram[1]:  1.567407  1.736842  1.629284  1.754181  1.647059  1.830252  1.755650  1.886191  1.787446  1.932412  1.786667  1.947968  1.609756  1.687400  1.609756  1.731148 
dram[2]:  1.561300  1.670886  1.598473  1.700326  1.625373  1.786062  1.712100  1.859281  1.760900  1.827941  1.728592  1.845912  1.595166  1.736842  1.556701  1.647426 
dram[3]:  1.586207  1.683121  1.571214  1.673077  1.589781  1.706522  1.686567  1.761972  1.687838  1.769448  1.701280  1.728341  1.578475  1.711974  1.625192  1.684211 
dram[4]:  1.600000  1.616208  1.657686  1.620155  1.681115  1.655639  1.770774  1.741620  1.821739  1.765449  1.844037  1.712409  1.647426  1.612214  1.609756  1.621166 
dram[5]:  1.627119  1.604863  1.673600  1.612654  1.696734  1.700306  1.820852  1.786325  1.796243  1.794540  1.826421  1.768889  1.662992  1.614679  1.669826  1.583832 
average row locality = 107949/63541 = 1.698887
number of total memory accesses made:
dram[0]:         0         0         0         0         0         0         0         0         0         0         0         0         0         0         0         0 
dram[1]:         0         0         0         0         0         0         0         0         0         0         0         0         0         0         0         0 
dram[2]:         0         0         0         0         0         0         0         0         0         0         0         0         0         0         0         0 
dram[3]:         0         0         0         0         0         0         0         0         0         0         0         0         0         0         0         0 
dram[4]:         0         0         0         0         0         0         0         0         0         0         0         0         0         0         0         0 
dram[5]:         0         0         0         0         0         0         0         0         0         0         0         0         0         0         0         0 
total accesses: 0
min_bank_accesses = 0!
min_chip_accesses = 0!
number of total read accesses:
dram[0]:      1060      1056      1046      1046      1044      1044      1088      1088      1088      1088      1078      1078      1057      1057      1056      1058 
dram[1]:      1058      1056      1046      1049      1044      1044      1088      1088      1088      1088      1078      1078      1056      1058      1056      1056 
dram[2]:      1057      1056      1047      1044      1044      1048      1088      1088      1088      1088      1078      1076      1056      1056      1057      1056 
dram[3]:      1058      1057      1048      1044      1044      1048      1088      1088      1088      1088      1078      1076      1056      1058      1058      1056 
dram[4]:      1056      1057      1046      1045      1044      1048      1088      1088      1088      1088      1078      1076      1056      1056      1056      1057 
dram[5]:      1056      1056      1046      1045      1044      1048      1088      1088      1088      1088      1078      1076      1056      1056      1057      1058 
total reads: 102178
bank skew: 1088/1044 = 1.04
chip skew: 17033/17027 = 1.00
number of total write accesses:
dram[0]:         0         0         0         0        48        48       154       153       163       160       126       111         0         0         0         0 
dram[1]:         0         0         0         0        48        45       155       155       165       170       128       120         0         0         0         0 
dram[2]:         0         0         0         0        45        54       143       154       164       155       113        98         0         0         0         0 
dram[3]:         0         0         0         0        45        51       155       163       161       163       118       101         0         0         0         0 
dram[4]:         0         0         0         0        42        53       148       159       169       169       128        97         0         0         0         0 
dram[5]:         0         0         0         0        47        64       152       166       155       161       111       118         0         0         0         0 
total reads: 5771
min_bank_accesses = 0!
chip skew: 986/926 = 1.06
average mf latency per bank:
dram[0]:      29344     31018     20725     21749      1117      1128      1119      1090      1086      1091      9050      9619     30292     32128     29663     30987
dram[1]:      30825     29710     21349     21044      1094      1082      1091      1050      1054      1057      9202      9429     30674     31093     30766     31210
dram[2]:      30352     30458     20991     19483      1095      1165      1148      1097      1036      1102      9262     11307     30764     31015     30570     30047
dram[3]:      30926     31794     21573     20421      1116      1109      1103      1089      1030      1078      9084     11482     31503     32035     31188     32006
dram[4]:      30152     30358     21659     19774      1166      1100      1117      1078      1097      1055      9317     10889     31754     31410     31131     30515
dram[5]:      31033     29251     21150     18452      1151      1015      1154      1034      1093      1071      9400     10466     31028     30061     30832     29436
maximum mf latency per bank:
dram[0]:       5693      6392      5698      6002      6105      6333      5942      6716      5259      6552      4749      4879      6228      5226      6272      5409
dram[1]:       6010      5544      6211      6160      5402      6250      6510      6276      7074      5924      5788      6066      6528      6450      5996      5930
dram[2]:       6112      5356      5677      6262      6510      5184      7025      5360      6270      5703      6393      6601      5204      5520      5976      5734
dram[3]:       5794      5398      5744      6742      6098      7098      6604      5992      6397      5381      5578      5157      6232      6448      6392      5206
dram[4]:       5837      6707      5254      6540      6594      5541      6313      6230      6848      6194      5336      5780      5586      5341      5686      5329
dram[5]:       6670      5774      5401      6158      6036      6459      6448      5466      5589      6216      5987      5942      5570      6431      5696      5496

Number of Memory Banks Accessed per Memory Operation per Warp (from 0):
0	0	0	0	0	0	0	0	0	0	0	0	0	0	0	0	0	0	0	0	0	0	0	0	0	0	0	0	0	0	0	0	0	0	0	0	0	0	0	0	0	0	0	0	0	0	0	0	0	0	0	0	0	0	0	0	0	0	0	0	0	0	0	0	0	0	0	0	0	0	0	0	0	0	0	0	0	0	0	0	0	0	0	0	0	0	0	0	0	0	0	0	0	0	0	0	
Average # of Memory Banks Accessed per Memory Operation per Warp=-nan

position of mrq chosen
0	0	0	0	0	0	0	0	0	0	0	0	0	0	0	0	

average position of mrq chosen = -nan
Memory Partition 0: 
Cache L2_bank_000:
MSHR contents

Cache L2_bank_001:
MSHR contents

In Dram Latency Queue (total = 0): 
DRAM[0]: 16 bks, busW=4 BL=8 CL=12, tRRD=2 tCCD=6, tRCD=12 tRAS=28 tRP=12 tRC=40
n_cmd=3739741 n_nop=3682443 n_act=10662 n_pre=10646 n_req=17995 n_rd=34064 n_write=1926 bw_util=0.01925
n_activity=469478 dram_eff=0.1533
bk0: 2120a 3717317i bk1: 2112a 3717712i bk2: 2092a 3717605i bk3: 2092a 3718184i bk4: 2088a 3717155i bk5: 2088a 3717307i bk6: 2176a 3714174i bk7: 2176a 3713683i bk8: 2176a 3714324i bk9: 2176a 3714324i bk10: 2156a 3715523i bk11: 2156a 3715590i bk12: 2114a 3717933i bk13: 2114a 3717390i bk14: 2112a 3717204i bk15: 2116a 3717719i 
dram_util_bins: 0 0 0 0 0 0 0 0 0 0
dram_eff_bins: 0 0 0 0 0 0 0 0 0 0
mrqq: max=16 avg=0.0113585
Memory Partition 1: 
Cache L2_bank_002:
MSHR contents

Cache L2_bank_003:
MSHR contents

In Dram Latency Queue (total = 0): 
DRAM[1]: 16 bks, busW=4 BL=8 CL=12, tRRD=2 tCCD=6, tRCD=12 tRAS=28 tRP=12 tRC=40
n_cmd=3739741 n_nop=3683045 n_act=10339 n_pre=10323 n_req=18017 n_rd=34062 n_write=1972 bw_util=0.01927
n_activity=464571 dram_eff=0.1551
bk0: 2116a 3716978i bk1: 2112a 3718821i bk2: 2092a 3717830i bk3: 2098a 3719212i bk4: 2088a 3716720i bk5: 2088a 3718636i bk6: 2176a 3713947i bk7: 2176a 3714860i bk8: 2176a 3714334i bk9: 2176a 3715397i bk10: 2156a 3715155i bk11: 2156a 3716873i bk12: 2112a 3717453i bk13: 2116a 3717914i bk14: 2112a 3717105i bk15: 2112a 3718494i 
dram_util_bins: 0 0 0 0 0 0 0 0 0 0
dram_eff_bins: 0 0 0 0 0 0 0 0 0 0
mrqq: max=16 avg=0.0173485
Memory Partition 2: 
Cache L2_bank_004:
MSHR contents

Cache L2_bank_005:
MSHR contents

In Dram Latency Queue (total = 0): 
DRAM[2]: 16 bks, busW=4 BL=8 CL=12, tRRD=2 tCCD=6, tRCD=12 tRAS=28 tRP=12 tRC=40
n_cmd=3739741 n_nop=3682735 n_act=10558 n_pre=10542 n_req=17953 n_rd=34054 n_write=1852 bw_util=0.0192
n_activity=461620 dram_eff=0.1556
bk0: 2114a 3716993i bk1: 2112a 3718071i bk2: 2094a 3717567i bk3: 2088a 3718371i bk4: 2088a 3716636i bk5: 2096a 3717594i bk6: 2176a 3713747i bk7: 2176a 3714693i bk8: 2176a 3713906i bk9: 2176a 3714429i bk10: 2156a 3715105i bk11: 2152a 3716507i bk12: 2112a 3717090i bk13: 2112a 3718119i bk14: 2114a 3716706i bk15: 2112a 3717037i 
dram_util_bins: 0 0 0 0 0 0 0 0 0 0
dram_eff_bins: 0 0 0 0 0 0 0 0 0 0
mrqq: max=16 avg=0.0168341
Memory Partition 3: 
Cache L2_bank_006:
MSHR contents

Cache L2_bank_007:
MSHR contents

In Dram Latency Queue (total = 0): 
DRAM[3]: 16 bks, busW=4 BL=8 CL=12, tRRD=2 tCCD=6, tRCD=12 tRAS=28 tRP=12 tRC=40
n_cmd=3739741 n_nop=3682261 n_act=10758 n_pre=10742 n_req=17990 n_rd=34066 n_write=1914 bw_util=0.01924
n_activity=467053 dram_eff=0.1541
bk0: 2116a 3717173i bk1: 2114a 3718276i bk2: 2096a 3717133i bk3: 2088a 3718394i bk4: 2088a 3716333i bk5: 2096a 3717324i bk6: 2176a 3713246i bk7: 2176a 3713764i bk8: 2176a 3713451i bk9: 2176a 3713936i bk10: 2156a 3714778i bk11: 2152a 3715373i bk12: 2112a 3716785i bk13: 2116a 3717899i bk14: 2116a 3717478i bk15: 2112a 3717569i 
dram_util_bins: 0 0 0 0 0 0 0 0 0 0
dram_eff_bins: 0 0 0 0 0 0 0 0 0 0
mrqq: max=16 avg=0.012388
Memory Partition 4: 
Cache L2_bank_008:
MSHR contents

Cache L2_bank_009:
MSHR contents

In Dram Latency Queue (total = 0): 
DRAM[4]: 16 bks, busW=4 BL=8 CL=12, tRRD=2 tCCD=6, tRCD=12 tRAS=28 tRP=12 tRC=40
n_cmd=3739741 n_nop=3682453 n_act=10660 n_pre=10644 n_req=17992 n_rd=34054 n_write=1930 bw_util=0.01924
n_activity=470008 dram_eff=0.1531
bk0: 2112a 3717314i bk1: 2114a 3717760i bk2: 2092a 3718033i bk3: 2090a 3717866i bk4: 2088a 3717225i bk5: 2096a 3716655i bk6: 2176a 3714237i bk7: 2176a 3713653i bk8: 2176a 3714507i bk9: 2176a 3713693i bk10: 2156a 3715843i bk11: 2152a 3715434i bk12: 2112a 3717517i bk13: 2112a 3717065i bk14: 2112a 3717134i bk15: 2114a 3717096i 
dram_util_bins: 0 0 0 0 0 0 0 0 0 0
dram_eff_bins: 0 0 0 0 0 0 0 0 0 0
mrqq: max=16 avg=0.0163974
Memory Partition 5: 
Cache L2_bank_010:
MSHR contents

Cache L2_bank_011:
MSHR contents

In Dram Latency Queue (total = 0): 
DRAM[5]: 16 bks, busW=4 BL=8 CL=12, tRRD=2 tCCD=6, tRCD=12 tRAS=28 tRP=12 tRC=40
n_cmd=3739741 n_nop=3682625 n_act=10564 n_pre=10548 n_req=18002 n_rd=34056 n_write=1948 bw_util=0.01925
n_activity=469639 dram_eff=0.1533
bk0: 2112a 3717851i bk1: 2112a 3717536i bk2: 2092a 3718448i bk3: 2090a 3717749i bk4: 2088a 3717345i bk5: 2096a 3716648i bk6: 2176a 3714732i bk7: 2176a 3713508i bk8: 2176a 3714448i bk9: 2176a 3714313i bk10: 2156a 3715961i bk11: 2152a 3715313i bk12: 2112a 3717721i bk13: 2112a 3717138i bk14: 2114a 3717775i bk15: 2116a 3716806i 
dram_util_bins: 0 0 0 0 0 0 0 0 0 0
dram_eff_bins: 0 0 0 0 0 0 0 0 0 0
mrqq: max=16 avg=0.0166672

========= L2 cache stats =========
L2_cache_bank[0]: Access = 253413, Miss = 8517, Miss_rate = 0.034, Pending_hits = 256, Reservation_fails = 416
L2_cache_bank[1]: Access = 256178, Miss = 8515, Miss_rate = 0.033, Pending_hits = 202, Reservation_fails = 1
L2_cache_bank[2]: Access = 254489, Miss = 8514, Miss_rate = 0.033, Pending_hits = 253, Reservation_fails = 145
L2_cache_bank[3]: Access = 254700, Miss = 8517, Miss_rate = 0.033, Pending_hits = 233, Reservation_fails = 20
L2_cache_bank[4]: Access = 255059, Miss = 8515, Miss_rate = 0.033, Pending_hits = 194, Reservation_fails = 16
L2_cache_bank[5]: Access = 254621, Miss = 8512, Miss_rate = 0.033, Pending_hits = 178, Reservation_fails = 259
L2_cache_bank[6]: Access = 255120, Miss = 8518, Miss_rate = 0.033, Pending_hits = 211, Reservation_fails = 2
L2_cache_bank[7]: Access = 256070, Miss = 8515, Miss_rate = 0.033, Pending_hits = 211, Reservation_fails = 256
L2_cache_bank[8]: Access = 254764, Miss = 8512, Miss_rate = 0.033, Pending_hits = 238, Reservation_fails = 127
L2_cache_bank[9]: Access = 255187, Miss = 8515, Miss_rate = 0.033, Pending_hits = 207, Reservation_fails = 22
L2_cache_bank[10]: Access = 254732, Miss = 8513, Miss_rate = 0.033, Pending_hits = 191, Reservation_fails = 139
L2_cache_bank[11]: Access = 252804, Miss = 8515, Miss_rate = 0.034, Pending_hits = 255, Reservation_fails = 24
L2_total_cache_accesses = 3057137
L2_total_cache_misses = 102178
L2_total_cache_miss_rate = 0.0334
L2_total_cache_pending_hits = 2629
L2_total_cache_reservation_fails = 1427
L2_total_cache_breakdown:
	L2_cache_stats_breakdown[GLOBAL_ACC_R][HIT] = 2111
	L2_cache_stats_breakdown[GLOBAL_ACC_R][MISS] = 99265
	L2_cache_stats_breakdown[GLOBAL_ACC_R][RESERVATION_FAIL] = 951
	L2_cache_stats_breakdown[CONST_ACC_R][HIT] = 11
	L2_cache_stats_breakdown[CONST_ACC_R][HIT_RESERVED] = 3
	L2_cache_stats_breakdown[CONST_ACC_R][MISS] = 1
	L2_cache_stats_breakdown[CONST_ACC_R][RESERVATION_FAIL] = 103
	L2_cache_stats_breakdown[TEXTURE_ACC_R][HIT] = 2948095
	L2_cache_stats_breakdown[TEXTURE_ACC_R][HIT_RESERVED] = 61
	L2_cache_stats_breakdown[TEXTURE_ACC_R][MISS] = 603
	L2_cache_stats_breakdown[GLOBAL_ACC_W][HIT] = 2052
	L2_cache_stats_breakdown[GLOBAL_ACC_W][HIT_RESERVED] = 2556
	L2_cache_stats_breakdown[GLOBAL_ACC_W][MISS] = 2304
	L2_cache_stats_breakdown[GLOBAL_ACC_W][RESERVATION_FAIL] = 150
	L2_cache_stats_breakdown[INST_ACC_R][HIT] = 61
	L2_cache_stats_breakdown[INST_ACC_R][HIT_RESERVED] = 9
	L2_cache_stats_breakdown[INST_ACC_R][MISS] = 5
	L2_cache_stats_breakdown[INST_ACC_R][RESERVATION_FAIL] = 223
L2_cache_data_port_util = 0.347
L2_cache_fill_port_util = 0.012

icnt_total_pkts_mem_to_simt=15258007
icnt_total_pkts_simt_to_mem=3084785
LD_mem_lat_dist  0 0 0 0 0 0 0 0 0 0 0 0 0 0 0 0 0 0 0 0 0 0 0 0 0 0 0
ST_mem_lat_dist  0 0 0 0 0 0 0 0 0 0 0 0 0 0 0 0 0 0 0 0 0 0 0 0 0 0 0
----------------------------Interconnect-DETAILS--------------------------------
Class 0:
Packet latency average = 119.162
	minimum = 6
	maximum = 1115
Network latency average = 66.8408
	minimum = 6
	maximum = 816
Slowest packet = 3060553
Flit latency average = 33.37
	minimum = 6
	maximum = 816
Slowest flit = 13972672
Fragmentation average = 0.012273
	minimum = 0
	maximum = 207
Injected packet rate average = 0.0800853
	minimum = 0.0674899 (at node 14)
	maximum = 0.0906157 (at node 16)
Accepted packet rate average = 0.0800853
	minimum = 0.0674899 (at node 14)
	maximum = 0.0906157 (at node 16)
Injected flit rate average = 0.240256
	minimum = 0.0681011 (at node 14)
	maximum = 0.452263 (at node 16)
Accepted flit rate average= 0.240256
	minimum = 0.0902061 (at node 26)
	maximum = 0.450063 (at node 6)
Injected packet length average = 3
Accepted packet length average = 3
Total in-flight flits = 0 (0 measured)
====== Overall Traffic Statistics ======
====== Traffic class 0 ======
Packet latency average = 119.17 (2 samples)
	minimum = 6 (2 samples)
	maximum = 1112 (2 samples)
Network latency average = 66.8466 (2 samples)
	minimum = 6 (2 samples)
	maximum = 801 (2 samples)
Flit latency average = 33.3833 (2 samples)
	minimum = 6 (2 samples)
	maximum = 801 (2 samples)
Fragmentation average = 0.012356 (2 samples)
	minimum = 0 (2 samples)
	maximum = 234.5 (2 samples)
Injected packet rate average = 0.079931 (2 samples)
	minimum = 0.0673697 (2 samples)
	maximum = 0.090427 (2 samples)
Accepted packet rate average = 0.079931 (2 samples)
	minimum = 0.0673697 (2 samples)
	maximum = 0.090427 (2 samples)
Injected flit rate average = 0.239793 (2 samples)
	minimum = 0.0679797 (2 samples)
	maximum = 0.451322 (2 samples)
Accepted flit rate average = 0.239793 (2 samples)
	minimum = 0.0900447 (2 samples)
	maximum = 0.449002 (2 samples)
Injected packet size average = 3 (2 samples)
Accepted packet size average = 3 (2 samples)
Hops average = 1 (2 samples)
