

        *** GPGPU-Sim Simulator Version 3.2.2  [build 0] ***


GPGPU-Sim PTX: simulation mode 0 (can change with PTX_SIM_MODE_FUNC environment variable:
               1=functional simulation only, 0=detailed performance simulator)
GPGPU-Sim: Configuration options:

-network_mode                           1 # Interconnection network mode
-inter_config_file   config_fermi_islip.icnt # Interconnection network config file
-gpgpu_ptx_use_cuobjdump                    1 # Use cuobjdump to extract ptx and sass from binaries
-gpgpu_experimental_lib_support                    0 # Try to extract code from cuda libraries [Broken because of unknown cudaGetExportTable]
-gpgpu_ptx_convert_to_ptxplus                    0 # Convert SASS (native ISA) to ptxplus and run ptxplus
-gpgpu_ptx_force_max_capability                   20 # Force maximum compute capability
-gpgpu_ptx_inst_debug_to_file                    0 # Dump executed instructions' debug information to file
-gpgpu_ptx_inst_debug_file       inst_debug.txt # Executed instructions' debug output file
-gpgpu_ptx_inst_debug_thread_uid                    1 # Thread UID for executed instructions' debug output
-gpgpu_simd_model                       1 # 1 = post-dominator
-gpgpu_shader_core_pipeline              1536:32 # shader core pipeline config, i.e., {<nthread>:<warpsize>}
-gpgpu_tex_cache:l1  4:128:24,L:R:m:N:L,F:128:4,128:2 # per-shader L1 texture cache  (READ-ONLY) config  {<nsets>:<bsize>:<assoc>,<rep>:<wr>:<alloc>:<wr_alloc>,<mshr>:<N>:<merge>,<mq>:<rf>}
-gpgpu_const_cache:l1 64:64:2,L:R:f:N:L,A:2:32,4 # per-shader L1 constant memory cache  (READ-ONLY) config  {<nsets>:<bsize>:<assoc>,<rep>:<wr>:<alloc>:<wr_alloc>,<mshr>:<N>:<merge>,<mq>} 
-gpgpu_cache:il1     4:128:4,L:R:f:N:L,A:2:32,4 # shader L1 instruction cache config  {<nsets>:<bsize>:<assoc>,<rep>:<wr>:<alloc>:<wr_alloc>,<mshr>:<N>:<merge>,<mq>} 
-gpgpu_cache:dl1     32:128:4,L:L:m:N:H,A:32:8,8:2,0,1:0:1:1:0:1,1:4:8:16:32:64,/sciclone/data10/hwang07/GPU_RESEARCH/swl/swl_outputs/RESULTS/swl16/ # per-shader L1 data cache config  {<nsets>:<bsize>:<assoc>,<rep>:<wr>:<alloc>:<wr_alloc>,<mshr>:<N>:<merge>,<mq> | none}
-gpgpu_cache:dl1PrefL1                 none # per-shader L1 data cache config  {<nsets>:<bsize>:<assoc>,<rep>:<wr>:<alloc>:<wr_alloc>,<mshr>:<N>:<merge>,<mq> | none}
-gpgpu_cache:dl1PreShared                 none # per-shader L1 data cache config  {<nsets>:<bsize>:<assoc>,<rep>:<wr>:<alloc>:<wr_alloc>,<mshr>:<N>:<merge>,<mq> | none}
-gmem_skip_L1D                          0 # global memory access skip L1D cache (implements -Xptxas -dlcm=cg, default=no skip)
-gpgpu_perfect_mem                      0 # enable perfect memory mode (no cache miss)
-n_regfile_gating_group                    4 # group of lanes that should be read/written together)
-gpgpu_clock_gated_reg_file                    0 # enable clock gated reg file for power calculations
-gpgpu_clock_gated_lanes                    0 # enable clock gated lanes for power calculations
-gpgpu_shader_registers                32768 # Number of registers per shader core. Limits number of concurrent CTAs. (default 8192)
-gpgpu_shader_cta                       8 # Maximum number of concurrent CTAs in shader (default 8)
-gpgpu_num_cta_barriers                   16 # Maximum number of named barriers per CTA (default 16)
-gpgpu_n_clusters                      15 # number of processing clusters
-gpgpu_n_cores_per_cluster                    1 # number of simd cores per cluster
-gpgpu_n_cluster_ejection_buffer_size                    8 # number of packets in ejection buffer
-gpgpu_n_ldst_response_buffer_size                    2 # number of response packets in ld/st unit ejection buffer
-gpgpu_shmem_size                   16384 # Size of shared memory per shader core (default 16kB)
-gpgpu_shmem_size                   49152 # Size of shared memory per shader core (default 16kB)
-gpgpu_shmem_size_PrefL1                16384 # Size of shared memory per shader core (default 16kB)
-gpgpu_shmem_size_PrefShared                16384 # Size of shared memory per shader core (default 16kB)
-gpgpu_shmem_num_banks                   32 # Number of banks in the shared memory in each shader core (default 16)
-gpgpu_shmem_limited_broadcast                    0 # Limit shared memory to do one broadcast per cycle (default on)
-gpgpu_shmem_warp_parts                    1 # Number of portions a warp is divided into for shared memory bank conflict check 
-gpgpu_warpdistro_shader                   -1 # Specify which shader core to collect the warp size distribution from
-gpgpu_warp_issue_shader                    0 # Specify which shader core to collect the warp issue distribution from
-gpgpu_local_mem_map                    1 # Mapping from local memory space address to simulated GPU physical address space (default = enabled)
-gpgpu_num_reg_banks                   16 # Number of register banks (default = 8)
-gpgpu_reg_bank_use_warp_id                    0 # Use warp ID in mapping registers to banks (default = off)
-gpgpu_operand_collector_num_units_sp                    6 # number of collector units (default = 4)
-gpgpu_operand_collector_num_units_sfu                    8 # number of collector units (default = 4)
-gpgpu_operand_collector_num_units_mem                    2 # number of collector units (default = 2)
-gpgpu_operand_collector_num_units_gen                    0 # number of collector units (default = 0)
-gpgpu_operand_collector_num_in_ports_sp                    2 # number of collector unit in ports (default = 1)
-gpgpu_operand_collector_num_in_ports_sfu                    1 # number of collector unit in ports (default = 1)
-gpgpu_operand_collector_num_in_ports_mem                    1 # number of collector unit in ports (default = 1)
-gpgpu_operand_collector_num_in_ports_gen                    0 # number of collector unit in ports (default = 0)
-gpgpu_operand_collector_num_out_ports_sp                    2 # number of collector unit in ports (default = 1)
-gpgpu_operand_collector_num_out_ports_sfu                    1 # number of collector unit in ports (default = 1)
-gpgpu_operand_collector_num_out_ports_mem                    1 # number of collector unit in ports (default = 1)
-gpgpu_operand_collector_num_out_ports_gen                    0 # number of collector unit in ports (default = 0)
-gpgpu_coalesce_arch                   13 # Coalescing arch (default = 13, anything else is off for now)
-gpgpu_num_sched_per_core                    2 # Number of warp schedulers per core
-gpgpu_max_insn_issue_per_warp                    1 # Max number of instructions that can be issued per warp in one cycle by scheduler
-gpgpu_simt_core_sim_order                    1 # Select the simulation order of cores in a cluster (0=Fix, 1=Round-Robin)
-gpgpu_pipeline_widths        2,1,1,2,1,1,2 # Pipeline widths ID_OC_SP,ID_OC_SFU,ID_OC_MEM,OC_EX_SP,OC_EX_SFU,OC_EX_MEM,EX_WB
-gpgpu_num_sp_units                     2 # Number of SP units (default=1)
-gpgpu_num_sfu_units                    1 # Number of SF units (default=1)
-gpgpu_num_mem_units                    1 # Number if ldst units (default=1) WARNING: not hooked up to anything
-gpgpu_scheduler       warp_limiting:2:16 # Scheduler configuration: < lrr | gto | two_level_active > If two_level_active:<num_active_warps>:<inner_prioritization>:<outer_prioritization>For complete list of prioritization values see shader.h enum scheduler_prioritization_typeDefault: gto
-gpgpu_dram_scheduler                    1 # 0 = fifo, 1 = FR-FCFS (defaul)
-gpgpu_dram_partition_queues              8:8:8:8 # i2$:$2d:d2$:$2i
-l2_ideal                               0 # Use a ideal L2 cache that always hit
-gpgpu_cache:dl2     64:128:8,L:B:m:W:L,A:32:4,4:0,32 # unified banked L2 data cache config  {<nsets>:<bsize>:<assoc>,<rep>:<wr>:<alloc>:<wr_alloc>,<mshr>:<N>:<merge>,<mq>}
-gpgpu_cache:dl2_texture_only                    0 # L2 cache used for texture only
-gpgpu_n_mem                            6 # number of memory modules (e.g. memory controllers) in gpu
-gpgpu_n_sub_partition_per_mchannel                    2 # number of memory subpartition in each memory module
-gpgpu_n_mem_per_ctrlr                    2 # number of memory chips per memory controller
-gpgpu_memlatency_stat                   14 # track and display latency statistics 0x2 enables MC, 0x4 enables queue logs
-gpgpu_frfcfs_dram_sched_queue_size                   16 # 0 = unlimited (default); # entries per chip
-gpgpu_dram_return_queue_size                  116 # 0 = unlimited (default); # entries per chip
-gpgpu_dram_buswidth                    4 # default = 4 bytes (8 bytes per cycle at DDR)
-gpgpu_dram_burst_length                    8 # Burst length of each DRAM request (default = 4 data bus cycle)
-dram_data_command_freq_ratio                    4 # Frequency ratio between DRAM data bus and command bus (default = 2 times, i.e. DDR)
-gpgpu_dram_timing_opt nbk=16:CCD=2:RRD=6:RCD=12:RAS=28:RP=12:RC=40: CL=12:WL=4:CDLR=5:WR=12:nbkgrp=4:CCDL=3:RTPL=2 # DRAM timing parameters = {nbk:tCCD:tRRD:tRCD:tRAS:tRP:tRC:CL:WL:tCDLR:tWR:nbkgrp:tCCDL:tRTPL}
-rop_latency                          120 # ROP queue latency (default 85)
-dram_latency                         100 # DRAM latency (default 30)
-gpgpu_mem_addr_mapping dramid@8;00000000.00000000.00000000.00000000.0000RRRR.RRRRRRRR.BBBCCCCB.CCSSSSSS # mapping memory address to dram model {dramid@<start bit>;<memory address map>}
-gpgpu_mem_addr_test                    0 # run sweep test to check address mapping for aliased address
-gpgpu_mem_address_mask                    1 # 0 = old addressing mask, 1 = new addressing mask, 2 = new add. mask + flipped bank sel and chip sel bits
-gpuwattch_xml_file  gpuwattch_gtx480.xml # GPUWattch XML file
-power_simulation_enabled                    0 # Turn on power simulator (1=On, 0=Off)
-power_per_cycle_dump                    0 # Dump detailed power output each cycle
-power_trace_enabled                    0 # produce a file for the power trace (1=On, 0=Off)
-power_trace_zlevel                     6 # Compression level of the power trace output log (0=no comp, 9=highest)
-steady_power_levels_enabled                    0 # produce a file for the steady power levels (1=On, 0=Off)
-steady_state_definition                  8:4 # allowed deviation:number of samples
-gpgpu_max_cycle                        0 # terminates gpu simulation early (0 = no limit)
-gpgpu_max_insn                         0 # terminates gpu simulation early (0 = no limit)
-gpgpu_max_cta                          0 # terminates gpu simulation early (0 = no limit)
-gpgpu_runtime_stat                   500 # display runtime statistics such as dram utilization {<freq>:<flag>}
-liveness_message_freq                    1 # Minimum number of seconds between simulation liveness messages (0 = always print)
-gpgpu_flush_l1_cache                    0 # Flush L1 cache at the end of each kernel call
-gpgpu_flush_l2_cache                    0 # Flush L2 cache at the end of each kernel call
-gpgpu_deadlock_detect                    1 # Stop the simulation at deadlock (1=on (default), 0=off)
-gpgpu_ptx_instruction_classification                    0 # if enabled will classify ptx instruction types per kernel (Max 255 kernels now)
-gpgpu_ptx_sim_mode                     0 # Select between Performance (default) or Functional simulation (1)
-gpgpu_clock_domains 700.0:700.0:700.0:924.0 # Clock Domain Frequencies in MhZ {<Core Clock>:<ICNT Clock>:<L2 Clock>:<DRAM Clock>}
-gpgpu_max_concurrent_kernel                    8 # maximum kernels that can run concurrently on GPU
-gpgpu_cflog_interval                    0 # Interval between each snapshot in control flow logger
-visualizer_enabled                     0 # Turn on visualizer output (1=On, 0=Off)
-visualizer_outputfile                 NULL # Specifies the output log file for visualizer
-visualizer_zlevel                      6 # Compression level of the visualizer output log (0=no comp, 9=highest)
-trace_enabled                          0 # Turn on traces
-trace_components                    none # comma seperated list of traces to enable. Complete list found in trace_streams.tup. Default none
-trace_sampling_core                    0 # The core which is printed using CORE_DPRINTF. Default 0
-trace_sampling_memory_partition                   -1 # The memory partition which is printed using MEMPART_DPRINTF. Default -1 (i.e. all)
-enable_ptx_file_line_stats                    1 # Turn on PTX source line statistic profiling. (1 = On)
-ptx_line_stats_filename gpgpu_inst_stats.txt # Output file for PTX source line statistics.
-save_embedded_ptx                      0 # saves ptx files embedded in binary as <n>.ptx
-keep                                   0 # keep intermediate files created by GPGPU-Sim when interfacing with external programs
-gpgpu_ptx_save_converted_ptxplus                    0 # Saved converted ptxplus to a file
-ptx_opcode_latency_int         4,13,4,5,145 # Opcode latencies for integers <ADD,MAX,MUL,MAD,DIV>Default 1,1,19,25,145
-ptx_opcode_latency_fp          4,13,4,5,39 # Opcode latencies for single precision floating points <ADD,MAX,MUL,MAD,DIV>Default 1,1,1,1,30
-ptx_opcode_latency_dp         8,19,8,8,330 # Opcode latencies for double precision floating points <ADD,MAX,MUL,MAD,DIV>Default 8,8,8,8,335
-ptx_opcode_initiation_int            1,2,2,1,8 # Opcode initiation intervals for integers <ADD,MAX,MUL,MAD,DIV>Default 1,1,4,4,32
-ptx_opcode_initiation_fp            1,2,1,1,4 # Opcode initiation intervals for single precision floating points <ADD,MAX,MUL,MAD,DIV>Default 1,1,1,1,5
-ptx_opcode_initiation_dp         8,16,8,8,130 # Opcode initiation intervals for double precision floating points <ADD,MAX,MUL,MAD,DIV>Default 8,8,8,8,130
DRAM Timing Options:
nbk                                    16 # number of banks
CCD                                     2 # column to column delay
RRD                                     6 # minimal delay between activation of rows in different banks
RCD                                    12 # row to column delay
RAS                                    28 # time needed to activate row
RP                                     12 # time needed to precharge (deactivate) row
RC                                     40 # row cycle time
CDLR                                    5 # switching from write to read (changes tWTR)
WR                                     12 # last data-in to row precharge
CL                                     12 # CAS latency
WL                                      4 # Write latency
nbkgrp                                  4 # number of bank groups
CCDL                                    3 # column to column delay between accesses to different bank groups
RTPL                                    2 # read to precharge delay between accesses to different bank groups
Total number of memory sub partition = 12
addr_dec_mask[CHIP]  = 0000000000000000 	high:64 low:0
addr_dec_mask[BK]    = 000000000000e100 	high:16 low:8
addr_dec_mask[ROW]   = 000000000fff0000 	high:28 low:16
addr_dec_mask[COL]   = 0000000000001eff 	high:13 low:0
addr_dec_mask[BURST] = 000000000000003f 	high:6 low:0
sub_partition_id_mask = 0000000000000100
GPGPU-Sim uArch: clock freqs: 700000000.000000:700000000.000000:700000000.000000:924000000.000000
GPGPU-Sim uArch: clock periods: 0.00000000142857142857:0.00000000142857142857:0.00000000142857142857:0.00000000108225108225
*** Initializing Memory Statistics ***
GPGPU-Sim uArch: interconnect node map (shaderID+MemID to icntID)
GPGPU-Sim uArch: Memory nodes ID start from index: 15
GPGPU-Sim uArch:    0   1   2   3   4
GPGPU-Sim uArch:    5   6   7   8   9
GPGPU-Sim uArch:   10  11  12  13  14
GPGPU-Sim uArch:   15  16  17  18  19
GPGPU-Sim uArch:   20  21  22  23  24
GPGPU-Sim uArch:   25  26
GPGPU-Sim uArch: interconnect node reverse map (icntID to shaderID+MemID)
GPGPU-Sim uArch: Memory nodes start from ID: 15
GPGPU-Sim uArch:    0   1   2   3   4
GPGPU-Sim uArch:    5   6   7   8   9
GPGPU-Sim uArch:   10  11  12  13  14
GPGPU-Sim uArch:   15  16  17  18  19
GPGPU-Sim uArch:   20  21  22  23  24
GPGPU-Sim uArch:   25  26
8ef9342edb8cdfc3e3546abba4d98120  /sciclone/data10/hwang07/adwait/applications/benchmarks/CUDA/NN/gpgpu_ptx_sim__NN
GPGPU-Sim uArch: performance model initialization complete.
GPGPU-Sim PTX: __cudaRegisterFatBinary, fat_cubin_handle = 1, filename=NN.cu
self exe links to: /sciclone/data10/hwang07/adwait/applications/benchmarks/CUDA/NN/gpgpu_ptx_sim__NN
Running md5sum using "md5sum /sciclone/data10/hwang07/adwait/applications/benchmarks/CUDA/NN/gpgpu_ptx_sim__NN "
Parsing file _cuobjdump_complete_output_G19y9x
######### cuobjdump parser ########
## Adding new section ELF
Adding arch: sm_20
Adding identifier: NN.cu
## Adding new section PTX
Adding ptx filename: _cuobjdump_1.ptx
Adding arch: sm_20
Adding identifier: NN.cu
Done parsing!!!
GPGPU-Sim PTX: __cudaRegisterFunction _Z18executeFourthLayerPfS_S_ : hostFun 0x0x4028e3, fat_cubin_handle = 1
GPGPU-Sim PTX: allocating constant region for "kernelTemplate" from 0x100 to 0x164 (global memory space) 1
GPGPU-Sim PTX: instruction assembly for function '_Z17executeFirstLayerPfS_S_'...   done.
GPGPU-Sim PTX: finding reconvergence points for '_Z17executeFirstLayerPfS_S_'...
GPGPU-Sim PTX: Finding dominators for '_Z17executeFirstLayerPfS_S_'...
GPGPU-Sim PTX: Finding immediate dominators for '_Z17executeFirstLayerPfS_S_'...
GPGPU-Sim PTX: Finding postdominators for '_Z17executeFirstLayerPfS_S_'...
GPGPU-Sim PTX: Finding immediate postdominators for '_Z17executeFirstLayerPfS_S_'...
GPGPU-Sim PTX: pre-decoding instructions for '_Z17executeFirstLayerPfS_S_'...
GPGPU-Sim PTX: reconvergence points for _Z17executeFirstLayerPfS_S_...
GPGPU-Sim PTX:  1 (potential) branch divergence @  PC=0x100 (_1.ptx:100) @%p1 bra $Lt_0_4098;
GPGPU-Sim PTX:    immediate post dominator      @  PC=0x108 (_1.ptx:102) cvt.f64.f32 %fd1, %f1;
GPGPU-Sim PTX:  2 (potential) branch divergence @  PC=0x148 (_1.ptx:110) @!%p2 bra $Lt_0_4866;
GPGPU-Sim PTX:    immediate post dominator      @  PC=0x2a8 (_1.ptx:162) cvt.f64.f32 %fd5, %f29;
GPGPU-Sim PTX:  3 (potential) branch divergence @  PC=0x230 (_1.ptx:142) bra.uni $Lt_0_4610;
GPGPU-Sim PTX:    immediate post dominator      @  PC=0x2a8 (_1.ptx:162) cvt.f64.f32 %fd5, %f29;
GPGPU-Sim PTX: ... end of reconvergence points for _Z17executeFirstLayerPfS_S_
GPGPU-Sim PTX: ... done pre-decoding instructions for '_Z17executeFirstLayerPfS_S_'.
GPGPU-Sim PTX: allocating constant region for "kernelTemplate2" from 0x180 to 0x1e4 (global memory space) 2
GPGPU-Sim PTX: instruction assembly for function '_Z18executeSecondLayerPfS_S_'...   done.
GPGPU-Sim PTX: finding reconvergence points for '_Z18executeSecondLayerPfS_S_'...
GPGPU-Sim PTX: Finding dominators for '_Z18executeSecondLayerPfS_S_'...
GPGPU-Sim PTX: Finding immediate dominators for '_Z18executeSecondLayerPfS_S_'...
GPGPU-Sim PTX: Finding postdominators for '_Z18executeSecondLayerPfS_S_'...
GPGPU-Sim PTX: Finding immediate postdominators for '_Z18executeSecondLayerPfS_S_'...
GPGPU-Sim PTX: pre-decoding instructions for '_Z18executeSecondLayerPfS_S_'...
GPGPU-Sim PTX: reconvergence points for _Z18executeSecondLayerPfS_S_...
GPGPU-Sim PTX:  1 (potential) branch divergence @  PC=0x4a0 (_1.ptx:251) @%p1 bra $Lt_1_5634;
GPGPU-Sim PTX:    immediate post dominator      @  PC=0x4a8 (_1.ptx:253) cvt.f64.f32 %fd1, %f1;
GPGPU-Sim PTX:  2 (potential) branch divergence @  PC=0x4e8 (_1.ptx:261) @!%p2 bra $Lt_1_6402;
GPGPU-Sim PTX:    immediate post dominator      @  PC=0x648 (_1.ptx:313) cvt.f64.f32 %fd5, %f44;
GPGPU-Sim PTX:  3 (potential) branch divergence @  PC=0x5d0 (_1.ptx:293) bra.uni $Lt_1_6146;
GPGPU-Sim PTX:    immediate post dominator      @  PC=0x648 (_1.ptx:313) cvt.f64.f32 %fd5, %f44;
GPGPU-Sim PTX: ... end of reconvergence points for _Z18executeSecondLayerPfS_S_
GPGPU-Sim PTX: ... done pre-decoding instructions for '_Z18executeSecondLayerPfS_S_'.
GPGPU-Sim PTX: instruction assembly for function '_Z17executeThirdLayerPfS_S_'...   done.
GPGPU-Sim PTX: finding reconvergence points for '_Z17executeThirdLayerPfS_S_'...
GPGPU-Sim PTX: Finding dominators for '_Z17executeThirdLayerPfS_S_'...
GPGPU-Sim PTX: Finding immediate dominators for '_Z17executeThirdLayerPfS_S_'...
GPGPU-Sim PTX: Finding postdominators for '_Z17executeThirdLayerPfS_S_'...
GPGPU-Sim PTX: Finding immediate postdominators for '_Z17executeThirdLayerPfS_S_'...
GPGPU-Sim PTX: pre-decoding instructions for '_Z17executeThirdLayerPfS_S_'...
GPGPU-Sim PTX: reconvergence points for _Z17executeThirdLayerPfS_S_...
GPGPU-Sim PTX:  1 (potential) branch divergence @  PC=0x788 (_1.ptx:373) @%p1 bra $Lt_2_4098;
GPGPU-Sim PTX:    immediate post dominator      @  PC=0x790 (_1.ptx:375) cvt.f64.f32 %fd1, %f1;
GPGPU-Sim PTX:  2 (potential) branch divergence @  PC=0x7d0 (_1.ptx:383) @!%p2 bra $Lt_2_4866;
GPGPU-Sim PTX:    immediate post dominator      @  PC=0x930 (_1.ptx:435) cvt.f64.f32 %fd5, %f29;
GPGPU-Sim PTX:  3 (potential) branch divergence @  PC=0x8b8 (_1.ptx:415) bra.uni $Lt_2_4610;
GPGPU-Sim PTX:    immediate post dominator      @  PC=0x930 (_1.ptx:435) cvt.f64.f32 %fd5, %f29;
GPGPU-Sim PTX: ... end of reconvergence points for _Z17executeThirdLayerPfS_S_
GPGPU-Sim PTX: ... done pre-decoding instructions for '_Z17executeThirdLayerPfS_S_'.
GPGPU-Sim PTX: instruction assembly for function '_Z18executeFourthLayerPfS_S_'...   done.
GPGPU-Sim PTX: finding reconvergence points for '_Z18executeFourthLayerPfS_S_'...
GPGPU-Sim PTX: Finding dominators for '_Z18executeFourthLayerPfS_S_'...
GPGPU-Sim PTX: Finding immediate dominators for '_Z18executeFourthLayerPfS_S_'...
GPGPU-Sim PTX: Finding postdominators for '_Z18executeFourthLayerPfS_S_'...
GPGPU-Sim PTX: Finding immediate postdominators for '_Z18executeFourthLayerPfS_S_'...
GPGPU-Sim PTX: pre-decoding instructions for '_Z18executeFourthLayerPfS_S_'...
GPGPU-Sim PTX: reconvergence points for _Z18executeFourthLayerPfS_S_...
GPGPU-Sim PTX:  1 (potential) branch divergence @  PC=0xa50 (_1.ptx:491) @%p1 bra $Lt_3_4098;
GPGPU-Sim PTX:    immediate post dominator      @  PC=0xa58 (_1.ptx:493) cvt.f64.f32 %fd1, %f1;
GPGPU-Sim PTX:  2 (potential) branch divergence @  PC=0xa98 (_1.ptx:501) @!%p2 bra $Lt_3_4866;
GPGPU-Sim PTX:    immediate post dominator      @  PC=0xbf8 (_1.ptx:553) cvt.f64.f32 %fd5, %f29;
GPGPU-Sim PTX:  3 (potential) branch divergence @  PC=0xb80 (_1.ptx:533) bra.uni $Lt_3_4610;
GPGPU-Sim PTX:    immediate post dominator      @  PC=0xbf8 (_1.ptx:553) cvt.f64.f32 %fd5, %f29;
GPGPU-Sim PTX: ... end of reconvergence points for _Z18executeFourthLayerPfS_S_
GPGPU-Sim PTX: ... done pre-decoding instructions for '_Z18executeFourthLayerPfS_S_'.
GPGPU-Sim PTX: finished parsing EMBEDDED .ptx file _1.ptx
Adding _cuobjdump_1.ptx with cubin handle 1
GPGPU-Sim PTX: extracting embedded .ptx to temporary file "_ptx_KvKDuw"
Running: cat _ptx_KvKDuw | sed 's/.version 1.5/.version 1.4/' | sed 's/, texmode_independent//' | sed 's/\(\.extern \.const\[1\] .b8 \w\+\)\[\]/\1\[1\]/' | sed 's/const\[.\]/const\[0\]/g' > _ptx2_GfHvIw
GPGPU-Sim PTX: generating ptxinfo using "$CUDA_INSTALL_PATH/bin/ptxas --gpu-name=sm_20 -v _ptx2_GfHvIw --output-file  /dev/null 2> _ptx_KvKDuwinfo"
GPGPU-Sim PTX: Kernel '_Z18executeFourthLayerPfS_S_' : regs=12, lmem=0, smem=0, cmem=288
GPGPU-Sim PTX: Kernel '_Z17executeThirdLayerPfS_S_' : regs=12, lmem=0, smem=0, cmem=288
GPGPU-Sim PTX: Kernel '_Z18executeSecondLayerPfS_S_' : regs=22, lmem=0, smem=0, cmem=288
GPGPU-Sim PTX: Kernel '_Z17executeFirstLayerPfS_S_' : regs=17, lmem=0, smem=0, cmem=288
GPGPU-Sim PTX: removing ptxinfo using "rm -f _ptx_KvKDuw _ptx2_GfHvIw _ptx_KvKDuwinfo"
GPGPU-Sim PTX: loading globals with explicit initializers... 
GPGPU-Sim PTX: finished loading globals (0 bytes total).
GPGPU-Sim PTX: loading constants with explicit initializers...  done.
GPGPU-Sim PTX: __cudaRegisterFunction _Z17executeThirdLayerPfS_S_ : hostFun 0x0x402821, fat_cubin_handle = 1
GPGPU-Sim PTX: __cudaRegisterFunction _Z18executeSecondLayerPfS_S_ : hostFun 0x0x40275f, fat_cubin_handle = 1
GPGPU-Sim PTX: __cudaRegisterFunction _Z17executeFirstLayerPfS_S_ : hostFun 0x0x40269d, fat_cubin_handle = 1
GPGPU-Sim PTX: __cudaRegisterVar: hostVar = 0x609e60; deviceAddress = kernelTemplate; deviceName = kernelTemplate
GPGPU-Sim PTX: __cudaRegisterVar: Registering const memory space of 100 bytes
GPGPU-Sim PTX registering constant kernelTemplate (100 bytes) to name mapping
GPGPU-Sim PTX: __cudaRegisterVar: hostVar = 0x609ee0; deviceAddress = kernelTemplate2; deviceName = kernelTemplate2
GPGPU-Sim PTX: __cudaRegisterVar: Registering const memory space of 100 bytes
GPGPU-Sim PTX registering constant kernelTemplate2 (100 bytes) to name mapping
magic number = 2051
number of items = 10000
number of rows = 28
number of rows = 28
NUM=28

GPGPU-Sim PTX: cudaLaunch for 0x0x40269d (mode=performance simulation) on stream 0
GPGPU-Sim PTX: pushing kernel '_Z17executeFirstLayerPfS_S_' to stream 0, gridDim= (6,28,1) blockDim = (13,13,1) 
kernel '_Z17executeFirstLayerPfS_S_' transfer to GPU hardware scheduler
GPGPU-Sim uArch: Shader 1 bind to kernel 1 '_Z17executeFirstLayerPfS_S_'
GPGPU-Sim uArch: CTA/core = 8, limited by: threads regs cta_limit
GPGPU-Sim uArch: core:  1, cta: 0 initialized @(1,0)
GPGPU-Sim uArch: Shader 2 bind to kernel 1 '_Z17executeFirstLayerPfS_S_'
GPGPU-Sim uArch: core:  2, cta: 0 initialized @(1,0)
GPGPU-Sim uArch: Shader 3 bind to kernel 1 '_Z17executeFirstLayerPfS_S_'
GPGPU-Sim uArch: core:  3, cta: 0 initialized @(1,0)
GPGPU-Sim uArch: Shader 4 bind to kernel 1 '_Z17executeFirstLayerPfS_S_'
GPGPU-Sim uArch: core:  4, cta: 0 initialized @(1,0)
GPGPU-Sim uArch: Shader 5 bind to kernel 1 '_Z17executeFirstLayerPfS_S_'
GPGPU-Sim uArch: core:  5, cta: 0 initialized @(1,0)
GPGPU-Sim uArch: Shader 6 bind to kernel 1 '_Z17executeFirstLayerPfS_S_'
GPGPU-Sim uArch: core:  6, cta: 0 initialized @(1,0)
GPGPU-Sim uArch: Shader 7 bind to kernel 1 '_Z17executeFirstLayerPfS_S_'
GPGPU-Sim uArch: core:  7, cta: 0 initialized @(1,0)
GPGPU-Sim uArch: Shader 8 bind to kernel 1 '_Z17executeFirstLayerPfS_S_'
GPGPU-Sim uArch: core:  8, cta: 0 initialized @(1,0)
GPGPU-Sim uArch: Shader 9 bind to kernel 1 '_Z17executeFirstLayerPfS_S_'
GPGPU-Sim uArch: core:  9, cta: 0 initialized @(1,0)
GPGPU-Sim uArch: Shader 10 bind to kernel 1 '_Z17executeFirstLayerPfS_S_'
GPGPU-Sim uArch: core: 10, cta: 0 initialized @(1,0)
GPGPU-Sim uArch: Shader 11 bind to kernel 1 '_Z17executeFirstLayerPfS_S_'
GPGPU-Sim uArch: core: 11, cta: 0 initialized @(1,0)
GPGPU-Sim uArch: Shader 12 bind to kernel 1 '_Z17executeFirstLayerPfS_S_'
GPGPU-Sim uArch: core: 12, cta: 0 initialized @(1,0)
GPGPU-Sim uArch: Shader 13 bind to kernel 1 '_Z17executeFirstLayerPfS_S_'
GPGPU-Sim uArch: core: 13, cta: 0 initialized @(1,0)
GPGPU-Sim uArch: Shader 14 bind to kernel 1 '_Z17executeFirstLayerPfS_S_'
GPGPU-Sim uArch: core: 14, cta: 0 initialized @(1,0)
GPGPU-Sim uArch: Shader 0 bind to kernel 1 '_Z17executeFirstLayerPfS_S_'
GPGPU-Sim uArch: core:  0, cta: 0 initialized @(1,0)
GPGPU-Sim uArch: core:  1, cta: 1 initialized @(2,0)
GPGPU-Sim uArch: core:  2, cta: 1 initialized @(2,0)
GPGPU-Sim uArch: core:  3, cta: 1 initialized @(2,0)
GPGPU-Sim uArch: core:  4, cta: 1 initialized @(2,0)
GPGPU-Sim uArch: core:  5, cta: 1 initialized @(2,0)
GPGPU-Sim uArch: core:  6, cta: 1 initialized @(2,0)
GPGPU-Sim uArch: core:  7, cta: 1 initialized @(2,0)
GPGPU-Sim uArch: core:  8, cta: 1 initialized @(2,0)
GPGPU-Sim uArch: core:  9, cta: 1 initialized @(2,0)
GPGPU-Sim uArch: core: 10, cta: 1 initialized @(2,0)
GPGPU-Sim uArch: core: 11, cta: 1 initialized @(2,0)
GPGPU-Sim uArch: core: 12, cta: 1 initialized @(2,0)
GPGPU-Sim uArch: core: 13, cta: 1 initialized @(2,0)
GPGPU-Sim uArch: core: 14, cta: 1 initialized @(2,0)
GPGPU-Sim uArch: core:  0, cta: 1 initialized @(2,0)
GPGPU-Sim uArch: core:  1, cta: 2 initialized @(3,0)
GPGPU-Sim uArch: core:  2, cta: 2 initialized @(3,0)
GPGPU-Sim uArch: core:  3, cta: 2 initialized @(3,0)
GPGPU-Sim uArch: core:  4, cta: 2 initialized @(3,0)
GPGPU-Sim uArch: core:  5, cta: 2 initialized @(3,0)
GPGPU-Sim uArch: core:  6, cta: 2 initialized @(3,0)
GPGPU-Sim uArch: core:  7, cta: 2 initialized @(3,0)
GPGPU-Sim uArch: core:  8, cta: 2 initialized @(3,0)
GPGPU-Sim uArch: core:  9, cta: 2 initialized @(3,0)
GPGPU-Sim uArch: core: 10, cta: 2 initialized @(3,0)
GPGPU-Sim uArch: core: 11, cta: 2 initialized @(3,0)
GPGPU-Sim uArch: core: 12, cta: 2 initialized @(3,0)
GPGPU-Sim uArch: core: 13, cta: 2 initialized @(3,0)
GPGPU-Sim uArch: core: 14, cta: 2 initialized @(3,0)
GPGPU-Sim uArch: core:  0, cta: 2 initialized @(3,0)
GPGPU-Sim uArch: core:  1, cta: 3 initialized @(4,0)
GPGPU-Sim uArch: core:  2, cta: 3 initialized @(4,0)
GPGPU-Sim uArch: core:  3, cta: 3 initialized @(4,0)
GPGPU-Sim uArch: core:  4, cta: 3 initialized @(4,0)
GPGPU-Sim uArch: core:  5, cta: 3 initialized @(4,0)
GPGPU-Sim uArch: core:  6, cta: 3 initialized @(4,0)
GPGPU-Sim uArch: core:  7, cta: 3 initialized @(4,0)
GPGPU-Sim uArch: core:  8, cta: 3 initialized @(4,0)
GPGPU-Sim uArch: core:  9, cta: 3 initialized @(4,0)
GPGPU-Sim uArch: core: 10, cta: 3 initialized @(4,0)
GPGPU-Sim uArch: core: 11, cta: 3 initialized @(4,0)
GPGPU-Sim uArch: core: 12, cta: 3 initialized @(4,0)
GPGPU-Sim uArch: core: 13, cta: 3 initialized @(4,0)
GPGPU-Sim uArch: core: 14, cta: 3 initialized @(4,0)
GPGPU-Sim uArch: core:  0, cta: 3 initialized @(4,0)
GPGPU-Sim uArch: core:  1, cta: 4 initialized @(5,0)
GPGPU-Sim uArch: core:  2, cta: 4 initialized @(5,0)
GPGPU-Sim uArch: core:  3, cta: 4 initialized @(5,0)
GPGPU-Sim uArch: core:  4, cta: 4 initialized @(5,0)
GPGPU-Sim uArch: core:  5, cta: 4 initialized @(5,0)
GPGPU-Sim uArch: core:  6, cta: 4 initialized @(5,0)
GPGPU-Sim uArch: core:  7, cta: 4 initialized @(5,0)
GPGPU-Sim uArch: core:  8, cta: 4 initialized @(5,0)
GPGPU-Sim uArch: core:  9, cta: 4 initialized @(5,0)
GPGPU-Sim uArch: core: 10, cta: 4 initialized @(5,0)
GPGPU-Sim uArch: core: 11, cta: 4 initialized @(5,0)
GPGPU-Sim uArch: core: 12, cta: 4 initialized @(5,0)
GPGPU-Sim uArch: core: 13, cta: 4 initialized @(5,0)
GPGPU-Sim uArch: core: 14, cta: 4 initialized @(5,0)
GPGPU-Sim uArch: core:  0, cta: 4 initialized @(5,0)
GPGPU-Sim uArch: core:  1, cta: 5 initialized @(6,0)
GPGPU-Sim uArch: core:  2, cta: 5 initialized @(6,0)
GPGPU-Sim uArch: core:  3, cta: 5 initialized @(6,0)
GPGPU-Sim uArch: core:  4, cta: 5 initialized @(6,0)
GPGPU-Sim uArch: core:  5, cta: 5 initialized @(6,0)
GPGPU-Sim uArch: core:  6, cta: 5 initialized @(6,0)
GPGPU-Sim uArch: core:  7, cta: 5 initialized @(6,0)
GPGPU-Sim uArch: core:  8, cta: 5 initialized @(6,0)
GPGPU-Sim uArch: core:  9, cta: 5 initialized @(6,0)
GPGPU-Sim uArch: core: 10, cta: 5 initialized @(6,0)
GPGPU-Sim uArch: core: 11, cta: 5 initialized @(6,0)
GPGPU-Sim uArch: core: 12, cta: 5 initialized @(6,0)
GPGPU-Sim uArch: core: 13, cta: 5 initialized @(6,0)
GPGPU-Sim uArch: core: 14, cta: 5 initialized @(6,0)
GPGPU-Sim uArch: core:  0, cta: 5 initialized @(6,0)
GPGPU-Sim uArch: core:  1, cta: 6 initialized @(7,0)
GPGPU-Sim uArch: core:  2, cta: 6 initialized @(7,0)
GPGPU-Sim uArch: core:  3, cta: 6 initialized @(7,0)
GPGPU-Sim uArch: core:  4, cta: 6 initialized @(7,0)
GPGPU-Sim uArch: core:  5, cta: 6 initialized @(7,0)
GPGPU-Sim uArch: core:  6, cta: 6 initialized @(7,0)
GPGPU-Sim uArch: core:  7, cta: 6 initialized @(7,0)
GPGPU-Sim uArch: core:  8, cta: 6 initialized @(7,0)
GPGPU-Sim uArch: core:  9, cta: 6 initialized @(7,0)
GPGPU-Sim uArch: core: 10, cta: 6 initialized @(7,0)
GPGPU-Sim uArch: core: 11, cta: 6 initialized @(7,0)
GPGPU-Sim uArch: core: 12, cta: 6 initialized @(7,0)
GPGPU-Sim uArch: core: 13, cta: 6 initialized @(7,0)
GPGPU-Sim uArch: core: 14, cta: 6 initialized @(7,0)
GPGPU-Sim uArch: core:  0, cta: 6 initialized @(7,0)
GPGPU-Sim uArch: core:  1, cta: 7 initialized @(8,0)
GPGPU-Sim uArch: core:  2, cta: 7 initialized @(8,0)
GPGPU-Sim uArch: core:  3, cta: 7 initialized @(8,0)
GPGPU-Sim uArch: core:  4, cta: 7 initialized @(8,0)
GPGPU-Sim uArch: core:  5, cta: 7 initialized @(8,0)
GPGPU-Sim uArch: core:  6, cta: 7 initialized @(8,0)
GPGPU-Sim uArch: core:  7, cta: 7 initialized @(8,0)
GPGPU-Sim uArch: core:  8, cta: 7 initialized @(8,0)
GPGPU-Sim uArch: core:  9, cta: 7 initialized @(8,0)
GPGPU-Sim uArch: core: 10, cta: 7 initialized @(8,0)
GPGPU-Sim uArch: core: 11, cta: 7 initialized @(8,0)
GPGPU-Sim uArch: core: 12, cta: 7 initialized @(8,0)
GPGPU-Sim uArch: core: 13, cta: 7 initialized @(8,0)
GPGPU-Sim uArch: core: 14, cta: 7 initialized @(8,0)
GPGPU-Sim uArch: core:  0, cta: 7 initialized @(8,0)
GPGPU-Sim uArch: cycles simulated: 500  inst.: 54540 (ipc=109.1) sim_rate=27270 (inst/sec) elapsed = 0:0:00:02 / Tue Mar 22 12:56:33 2016
GPGPU-Sim PTX: 100000 instructions simulated : ctaid=(2,7,0) tid=(4,0,0)
GPGPU-Sim PTX: 200000 instructions simulated : ctaid=(5,8,0) tid=(2,7,0)
GPGPU-Sim uArch: cycles simulated: 1000  inst.: 222036 (ipc=222.0) sim_rate=74012 (inst/sec) elapsed = 0:0:00:03 / Tue Mar 22 12:56:34 2016
GPGPU-Sim PTX: 300000 instructions simulated : ctaid=(1,13,0) tid=(7,1,0)
GPGPU-Sim uArch: cycles simulated: 2000  inst.: 363307 (ipc=181.7) sim_rate=90826 (inst/sec) elapsed = 0:0:00:04 / Tue Mar 22 12:56:35 2016
GPGPU-Sim PTX: 400000 instructions simulated : ctaid=(2,0,0) tid=(0,1,0)
GPGPU-Sim PTX: 500000 instructions simulated : ctaid=(2,2,0) tid=(11,9,0)
GPGPU-Sim PTX: 600000 instructions simulated : ctaid=(5,1,0) tid=(7,4,0)
GPGPU-Sim PTX: 700000 instructions simulated : ctaid=(1,7,0) tid=(1,6,0)
GPGPU-Sim PTX: 800000 instructions simulated : ctaid=(0,12,0) tid=(5,5,0)
GPGPU-Sim uArch: cycles simulated: 3500  inst.: 872087 (ipc=249.2) sim_rate=174417 (inst/sec) elapsed = 0:0:00:05 / Tue Mar 22 12:56:36 2016
GPGPU-Sim PTX: 900000 instructions simulated : ctaid=(4,6,0) tid=(0,0,0)
GPGPU-Sim PTX: 1000000 instructions simulated : ctaid=(1,4,0) tid=(1,3,0)
GPGPU-Sim PTX: 1100000 instructions simulated : ctaid=(0,6,0) tid=(12,12,0)
GPGPU-Sim PTX: 1200000 instructions simulated : ctaid=(0,5,0) tid=(4,8,0)
GPGPU-Sim uArch: cycles simulated: 4000  inst.: 1207453 (ipc=301.9) sim_rate=201242 (inst/sec) elapsed = 0:0:00:06 / Tue Mar 22 12:56:37 2016
GPGPU-Sim PTX: 1300000 instructions simulated : ctaid=(1,3,0) tid=(1,5,0)
GPGPU-Sim PTX: 1400000 instructions simulated : ctaid=(3,6,0) tid=(6,4,0)
GPGPU-Sim PTX: 1500000 instructions simulated : ctaid=(3,3,0) tid=(3,7,0)
GPGPU-Sim PTX: 1600000 instructions simulated : ctaid=(0,0,0) tid=(7,6,0)
GPGPU-Sim PTX: 1700000 instructions simulated : ctaid=(5,6,0) tid=(5,2,0)
GPGPU-Sim PTX: 1800000 instructions simulated : ctaid=(4,10,0) tid=(2,11,0)
GPGPU-Sim uArch: cycles simulated: 5000  inst.: 1830405 (ipc=366.1) sim_rate=261486 (inst/sec) elapsed = 0:0:00:07 / Tue Mar 22 12:56:38 2016
GPGPU-Sim PTX: 1900000 instructions simulated : ctaid=(4,10,0) tid=(11,12,0)
GPGPU-Sim PTX: 2000000 instructions simulated : ctaid=(0,4,0) tid=(4,8,0)
GPGPU-Sim PTX: 2100000 instructions simulated : ctaid=(0,7,0) tid=(6,5,0)
GPGPU-Sim PTX: 2200000 instructions simulated : ctaid=(3,2,0) tid=(6,9,0)
GPGPU-Sim PTX: 2300000 instructions simulated : ctaid=(5,10,0) tid=(0,8,0)
GPGPU-Sim PTX: 2400000 instructions simulated : ctaid=(0,0,0) tid=(8,12,0)
GPGPU-Sim uArch: cycles simulated: 6000  inst.: 2418974 (ipc=403.2) sim_rate=302371 (inst/sec) elapsed = 0:0:00:08 / Tue Mar 22 12:56:39 2016
GPGPU-Sim PTX: 2500000 instructions simulated : ctaid=(4,2,0) tid=(7,6,0)
GPGPU-Sim PTX: 2600000 instructions simulated : ctaid=(2,8,0) tid=(3,5,0)
GPGPU-Sim PTX: 2700000 instructions simulated : ctaid=(4,1,0) tid=(11,4,0)
GPGPU-Sim PTX: 2800000 instructions simulated : ctaid=(4,6,0) tid=(2,7,0)
GPGPU-Sim PTX: 2900000 instructions simulated : ctaid=(3,0,0) tid=(11,1,0)
GPGPU-Sim PTX: 3000000 instructions simulated : ctaid=(3,0,0) tid=(8,0,0)
GPGPU-Sim uArch: cycles simulated: 7000  inst.: 3002924 (ipc=429.0) sim_rate=333658 (inst/sec) elapsed = 0:0:00:09 / Tue Mar 22 12:56:40 2016
GPGPU-Sim PTX: 3100000 instructions simulated : ctaid=(1,11,0) tid=(7,4,0)
GPGPU-Sim PTX: 3200000 instructions simulated : ctaid=(1,0,0) tid=(0,12,0)
GPGPU-Sim PTX: 3300000 instructions simulated : ctaid=(3,9,0) tid=(1,1,0)
GPGPU-Sim uArch: cycles simulated: 7500  inst.: 3309374 (ipc=441.2) sim_rate=330937 (inst/sec) elapsed = 0:0:00:10 / Tue Mar 22 12:56:41 2016
GPGPU-Sim PTX: 3400000 instructions simulated : ctaid=(5,1,0) tid=(8,12,0)
GPGPU-Sim PTX: 3500000 instructions simulated : ctaid=(5,3,0) tid=(12,2,0)
GPGPU-Sim PTX: 3600000 instructions simulated : ctaid=(4,8,0) tid=(12,5,0)
GPGPU-Sim PTX: 3700000 instructions simulated : ctaid=(0,0,0) tid=(6,6,0)
GPGPU-Sim PTX: 3800000 instructions simulated : ctaid=(5,8,0) tid=(5,9,0)
GPGPU-Sim PTX: 3900000 instructions simulated : ctaid=(3,1,0) tid=(2,8,0)
GPGPU-Sim uArch: cycles simulated: 8500  inst.: 3904668 (ipc=459.4) sim_rate=354969 (inst/sec) elapsed = 0:0:00:11 / Tue Mar 22 12:56:42 2016
GPGPU-Sim PTX: 4000000 instructions simulated : ctaid=(3,10,0) tid=(10,1,0)
GPGPU-Sim PTX: 4100000 instructions simulated : ctaid=(2,13,0) tid=(4,1,0)
GPGPU-Sim PTX: 4200000 instructions simulated : ctaid=(1,13,0) tid=(9,11,0)
GPGPU-Sim PTX: 4300000 instructions simulated : ctaid=(1,14,0) tid=(8,6,0)
GPGPU-Sim PTX: 4400000 instructions simulated : ctaid=(5,11,0) tid=(2,8,0)
GPGPU-Sim uArch: cycles simulated: 9500  inst.: 4416980 (ipc=464.9) sim_rate=368081 (inst/sec) elapsed = 0:0:00:12 / Tue Mar 22 12:56:43 2016
GPGPU-Sim PTX: 4500000 instructions simulated : ctaid=(2,3,0) tid=(2,0,0)
GPGPU-Sim uArch: Shader 0 finished CTA #2 (9808,0), 7 CTAs running
GPGPU-Sim uArch: core:  0, cta: 2 initialized @(9809,0)
GPGPU-Sim PTX: 4600000 instructions simulated : ctaid=(4,7,0) tid=(8,5,0)
GPGPU-Sim uArch: Shader 4 finished CTA #0 (10042,0), 7 CTAs running
GPGPU-Sim uArch: core:  4, cta: 0 initialized @(10043,0)
GPGPU-Sim PTX: 4700000 instructions simulated : ctaid=(3,1,0) tid=(4,10,0)
GPGPU-Sim PTX: 4800000 instructions simulated : ctaid=(4,5,0) tid=(7,8,0)
GPGPU-Sim uArch: cycles simulated: 10500  inst.: 4875027 (ipc=464.3) sim_rate=375002 (inst/sec) elapsed = 0:0:00:13 / Tue Mar 22 12:56:44 2016
GPGPU-Sim uArch: Shader 14 finished CTA #0 (10506,0), 7 CTAs running
GPGPU-Sim uArch: core: 14, cta: 0 initialized @(10507,0)
GPGPU-Sim PTX: 4900000 instructions simulated : ctaid=(2,1,0) tid=(2,7,0)
GPGPU-Sim uArch: Shader 14 finished CTA #2 (10523,0), 7 CTAs running
GPGPU-Sim uArch: core: 14, cta: 2 initialized @(10524,0)
GPGPU-Sim PTX: 5000000 instructions simulated : ctaid=(0,15,0) tid=(9,11,0)
GPGPU-Sim PTX: 5100000 instructions simulated : ctaid=(1,8,0) tid=(7,4,0)
GPGPU-Sim uArch: cycles simulated: 11000  inst.: 5088678 (ipc=462.6) sim_rate=363477 (inst/sec) elapsed = 0:0:00:14 / Tue Mar 22 12:56:45 2016
GPGPU-Sim uArch: Shader 13 finished CTA #2 (11006,0), 7 CTAs running
GPGPU-Sim uArch: core: 13, cta: 2 initialized @(11007,0)
GPGPU-Sim uArch: Shader 10 finished CTA #0 (11085,0), 7 CTAs running
GPGPU-Sim uArch: core: 10, cta: 0 initialized @(11086,0)
GPGPU-Sim PTX: 5200000 instructions simulated : ctaid=(2,8,0) tid=(1,2,0)
GPGPU-Sim uArch: Shader 11 finished CTA #0 (11227,0), 7 CTAs running
GPGPU-Sim uArch: core: 11, cta: 0 initialized @(11228,0)
GPGPU-Sim uArch: Shader 0 finished CTA #1 (11244,0), 7 CTAs running
GPGPU-Sim uArch: core:  0, cta: 1 initialized @(11245,0)
GPGPU-Sim PTX: 5300000 instructions simulated : ctaid=(4,14,0) tid=(4,7,0)
GPGPU-Sim uArch: Shader 6 finished CTA #0 (11374,0), 7 CTAs running
GPGPU-Sim uArch: core:  6, cta: 0 initialized @(11375,0)
GPGPU-Sim uArch: Shader 2 finished CTA #1 (11410,0), 7 CTAs running
GPGPU-Sim uArch: core:  2, cta: 1 initialized @(11411,0)
GPGPU-Sim uArch: Shader 2 finished CTA #2 (11475,0), 7 CTAs running
GPGPU-Sim uArch: core:  2, cta: 2 initialized @(11476,0)
GPGPU-Sim PTX: 5400000 instructions simulated : ctaid=(4,8,0) tid=(0,11,0)
GPGPU-Sim PTX: 5500000 instructions simulated : ctaid=(5,12,0) tid=(8,0,0)
GPGPU-Sim uArch: Shader 12 finished CTA #1 (11745,0), 7 CTAs running
GPGPU-Sim uArch: core: 12, cta: 1 initialized @(11746,0)
GPGPU-Sim uArch: Shader 6 finished CTA #3 (11778,0), 7 CTAs running
GPGPU-Sim uArch: core:  6, cta: 3 initialized @(11779,0)
GPGPU-Sim PTX: 5600000 instructions simulated : ctaid=(4,16,0) tid=(7,3,0)
GPGPU-Sim uArch: Shader 5 finished CTA #0 (11915,0), 7 CTAs running
GPGPU-Sim uArch: core:  5, cta: 0 initialized @(11916,0)
GPGPU-Sim uArch: cycles simulated: 12000  inst.: 5649802 (ipc=470.8) sim_rate=376653 (inst/sec) elapsed = 0:0:00:15 / Tue Mar 22 12:56:46 2016
GPGPU-Sim PTX: 5700000 instructions simulated : ctaid=(0,14,0) tid=(10,10,0)
GPGPU-Sim uArch: Shader 3 finished CTA #1 (12114,0), 7 CTAs running
GPGPU-Sim uArch: core:  3, cta: 1 initialized @(12115,0)
GPGPU-Sim PTX: 5800000 instructions simulated : ctaid=(5,10,0) tid=(4,12,0)
GPGPU-Sim uArch: Shader 14 finished CTA #1 (12209,0), 7 CTAs running
GPGPU-Sim uArch: core: 14, cta: 1 initialized @(12210,0)
GPGPU-Sim uArch: Shader 11 finished CTA #1 (12241,0), 7 CTAs running
GPGPU-Sim uArch: core: 11, cta: 1 initialized @(12242,0)
GPGPU-Sim PTX: 5900000 instructions simulated : ctaid=(3,8,0) tid=(1,11,0)
GPGPU-Sim uArch: Shader 0 finished CTA #0 (12485,0), 7 CTAs running
GPGPU-Sim uArch: core:  0, cta: 0 initialized @(12486,0)
GPGPU-Sim uArch: Shader 3 finished CTA #2 (12487,0), 7 CTAs running
GPGPU-Sim uArch: core:  3, cta: 2 initialized @(12488,0)
GPGPU-Sim uArch: Shader 13 finished CTA #4 (12530,0), 7 CTAs running
GPGPU-Sim uArch: core: 13, cta: 4 initialized @(12531,0)
GPGPU-Sim uArch: Shader 10 finished CTA #1 (12558,0), 7 CTAs running
GPGPU-Sim uArch: core: 10, cta: 1 initialized @(12559,0)
GPGPU-Sim PTX: 6000000 instructions simulated : ctaid=(3,16,0) tid=(0,7,0)
GPGPU-Sim uArch: Shader 8 finished CTA #1 (12617,0), 7 CTAs running
GPGPU-Sim uArch: core:  8, cta: 1 initialized @(12618,0)
GPGPU-Sim uArch: Shader 13 finished CTA #1 (12662,0), 7 CTAs running
GPGPU-Sim uArch: core: 13, cta: 1 initialized @(12663,0)
GPGPU-Sim uArch: Shader 1 finished CTA #1 (12708,0), 7 CTAs running
GPGPU-Sim uArch: core:  1, cta: 1 initialized @(12709,0)
GPGPU-Sim PTX: 6100000 instructions simulated : ctaid=(4,20,0) tid=(0,2,0)
GPGPU-Sim uArch: Shader 10 finished CTA #3 (12717,0), 7 CTAs running
GPGPU-Sim uArch: core: 10, cta: 3 initialized @(12718,0)
GPGPU-Sim uArch: Shader 4 finished CTA #3 (12726,0), 7 CTAs running
GPGPU-Sim uArch: core:  4, cta: 3 initialized @(12727,0)
GPGPU-Sim uArch: Shader 5 finished CTA #1 (12753,0), 7 CTAs running
GPGPU-Sim uArch: core:  5, cta: 1 initialized @(12754,0)
GPGPU-Sim uArch: Shader 9 finished CTA #1 (12755,0), 7 CTAs running
GPGPU-Sim uArch: core:  9, cta: 1 initialized @(12756,0)
GPGPU-Sim uArch: Shader 4 finished CTA #1 (12770,0), 7 CTAs running
GPGPU-Sim uArch: core:  4, cta: 1 initialized @(12771,0)
GPGPU-Sim uArch: Shader 8 finished CTA #2 (12776,0), 7 CTAs running
GPGPU-Sim uArch: core:  8, cta: 2 initialized @(12777,0)
GPGPU-Sim uArch: Shader 12 finished CTA #0 (12808,0), 7 CTAs running
GPGPU-Sim uArch: core: 12, cta: 0 initialized @(12809,0)
GPGPU-Sim uArch: Shader 11 finished CTA #3 (12873,0), 7 CTAs running
GPGPU-Sim uArch: core: 11, cta: 3 initialized @(12874,0)
GPGPU-Sim PTX: 6200000 instructions simulated : ctaid=(0,18,0) tid=(11,2,0)
GPGPU-Sim uArch: Shader 1 finished CTA #2 (12879,0), 7 CTAs running
GPGPU-Sim uArch: core:  1, cta: 2 initialized @(12880,0)
GPGPU-Sim uArch: Shader 5 finished CTA #3 (12892,0), 7 CTAs running
GPGPU-Sim uArch: core:  5, cta: 3 initialized @(12893,0)
GPGPU-Sim uArch: Shader 13 finished CTA #0 (12930,0), 7 CTAs running
GPGPU-Sim uArch: core: 13, cta: 0 initialized @(12931,0)
GPGPU-Sim uArch: Shader 6 finished CTA #2 (12946,0), 7 CTAs running
GPGPU-Sim uArch: core:  6, cta: 2 initialized @(12947,0)
GPGPU-Sim uArch: Shader 2 finished CTA #0 (12948,0), 7 CTAs running
GPGPU-Sim uArch: core:  2, cta: 0 initialized @(12949,0)
GPGPU-Sim uArch: Shader 1 finished CTA #4 (12991,0), 7 CTAs running
GPGPU-Sim uArch: core:  1, cta: 4 initialized @(12992,0)
GPGPU-Sim uArch: cycles simulated: 13000  inst.: 6240295 (ipc=480.0) sim_rate=390018 (inst/sec) elapsed = 0:0:00:16 / Tue Mar 22 12:56:47 2016
GPGPU-Sim uArch: Shader 14 finished CTA #3 (13018,0), 7 CTAs running
GPGPU-Sim uArch: core: 14, cta: 3 initialized @(13019,0)
GPGPU-Sim PTX: 6300000 instructions simulated : ctaid=(2,18,0) tid=(0,10,0)
GPGPU-Sim uArch: Shader 12 finished CTA #3 (13142,0), 7 CTAs running
GPGPU-Sim uArch: core: 12, cta: 3 initialized @(13143,0)
GPGPU-Sim uArch: Shader 1 finished CTA #0 (13215,0), 7 CTAs running
GPGPU-Sim uArch: core:  1, cta: 0 initialized @(13216,0)
GPGPU-Sim PTX: 6400000 instructions simulated : ctaid=(5,6,0) tid=(1,8,0)
GPGPU-Sim PTX: 6500000 instructions simulated : ctaid=(3,9,0) tid=(6,7,0)
GPGPU-Sim uArch: Shader 4 finished CTA #2 (13414,0), 7 CTAs running
GPGPU-Sim uArch: core:  4, cta: 2 initialized @(13415,0)
GPGPU-Sim uArch: Shader 6 finished CTA #1 (13448,0), 7 CTAs running
GPGPU-Sim uArch: core:  6, cta: 1 initialized @(13449,0)
GPGPU-Sim uArch: cycles simulated: 13500  inst.: 6517171 (ipc=482.8) sim_rate=383363 (inst/sec) elapsed = 0:0:00:17 / Tue Mar 22 12:56:48 2016
GPGPU-Sim uArch: Shader 0 finished CTA #3 (13577,0), 7 CTAs running
GPGPU-Sim uArch: core:  0, cta: 3 initialized @(13578,0)
GPGPU-Sim PTX: 6600000 instructions simulated : ctaid=(5,17,0) tid=(9,5,0)
GPGPU-Sim uArch: Shader 7 finished CTA #1 (13711,0), 7 CTAs running
GPGPU-Sim uArch: core:  7, cta: 1 initialized @(13712,0)
GPGPU-Sim PTX: 6700000 instructions simulated : ctaid=(0,21,0) tid=(12,0,0)
GPGPU-Sim uArch: Shader 7 finished CTA #2 (13896,0), 7 CTAs running
GPGPU-Sim uArch: core:  7, cta: 2 initialized @(13897,0)
GPGPU-Sim PTX: 6800000 instructions simulated : ctaid=(4,12,0) tid=(1,3,0)
GPGPU-Sim uArch: cycles simulated: 14000  inst.: 6788293 (ipc=484.9) sim_rate=377127 (inst/sec) elapsed = 0:0:00:18 / Tue Mar 22 12:56:49 2016
GPGPU-Sim uArch: Shader 14 finished CTA #4 (14075,0), 7 CTAs running
GPGPU-Sim uArch: core: 14, cta: 4 initialized @(14076,0)
GPGPU-Sim uArch: Shader 4 finished CTA #4 (14084,0), 7 CTAs running
GPGPU-Sim uArch: core:  4, cta: 4 initialized @(14085,0)
GPGPU-Sim PTX: 6900000 instructions simulated : ctaid=(2,16,0) tid=(10,8,0)
GPGPU-Sim uArch: Shader 6 finished CTA #4 (14245,0), 7 CTAs running
GPGPU-Sim PTX: 7000000 instructions simulated : ctaid=(2,25,0) tid=(6,5,0)
GPGPU-Sim PTX: 7100000 instructions simulated : ctaid=(5,23,0) tid=(11,7,0)
GPGPU-Sim uArch: Shader 13 finished CTA #3 (14520,0), 7 CTAs running
GPGPU-Sim PTX: 7200000 instructions simulated : ctaid=(0,11,0) tid=(5,12,0)
GPGPU-Sim uArch: Shader 9 finished CTA #2 (14718,0), 7 CTAs running
GPGPU-Sim uArch: Shader 5 finished CTA #4 (14727,0), 7 CTAs running
GPGPU-Sim PTX: 7300000 instructions simulated : ctaid=(3,18,0) tid=(7,4,0)
GPGPU-Sim uArch: Shader 5 finished CTA #2 (14921,0), 6 CTAs running
GPGPU-Sim uArch: cycles simulated: 15000  inst.: 7350222 (ipc=490.0) sim_rate=386853 (inst/sec) elapsed = 0:0:00:19 / Tue Mar 22 12:56:50 2016
GPGPU-Sim PTX: 7400000 instructions simulated : ctaid=(2,22,0) tid=(8,0,0)
GPGPU-Sim uArch: Shader 3 finished CTA #0 (15178,0), 7 CTAs running
GPGPU-Sim PTX: 7500000 instructions simulated : ctaid=(4,15,0) tid=(0,8,0)
GPGPU-Sim uArch: Shader 12 finished CTA #4 (15310,0), 7 CTAs running
GPGPU-Sim PTX: 7600000 instructions simulated : ctaid=(5,26,0) tid=(12,0,0)
GPGPU-Sim PTX: 7700000 instructions simulated : ctaid=(1,23,0) tid=(12,6,0)
GPGPU-Sim uArch: Shader 10 finished CTA #4 (15611,0), 7 CTAs running
GPGPU-Sim uArch: Shader 2 finished CTA #4 (15626,0), 7 CTAs running
GPGPU-Sim uArch: Shader 1 finished CTA #3 (15715,0), 7 CTAs running
GPGPU-Sim PTX: 7800000 instructions simulated : ctaid=(3,12,0) tid=(10,10,0)
GPGPU-Sim PTX: 7900000 instructions simulated : ctaid=(3,25,0) tid=(12,11,0)
GPGPU-Sim uArch: Shader 3 finished CTA #4 (15957,0), 6 CTAs running
GPGPU-Sim uArch: cycles simulated: 16000  inst.: 7932456 (ipc=495.8) sim_rate=396622 (inst/sec) elapsed = 0:0:00:20 / Tue Mar 22 12:56:51 2016
GPGPU-Sim PTX: 8000000 instructions simulated : ctaid=(1,22,0) tid=(9,11,0)
GPGPU-Sim PTX: 8100000 instructions simulated : ctaid=(1,22,0) tid=(3,6,0)
GPGPU-Sim uArch: Shader 11 finished CTA #4 (16323,0), 7 CTAs running
GPGPU-Sim uArch: Shader 6 finished CTA #5 (16371,0), 6 CTAs running
GPGPU-Sim PTX: 8200000 instructions simulated : ctaid=(5,22,0) tid=(3,11,0)
GPGPU-Sim uArch: Shader 5 finished CTA #5 (16401,0), 5 CTAs running
GPGPU-Sim uArch: cycles simulated: 16500  inst.: 8245493 (ipc=499.7) sim_rate=392642 (inst/sec) elapsed = 0:0:00:21 / Tue Mar 22 12:56:52 2016
GPGPU-Sim PTX: 8300000 instructions simulated : ctaid=(3,27,0) tid=(2,6,0)
GPGPU-Sim uArch: Shader 7 finished CTA #0 (16661,0), 7 CTAs running
GPGPU-Sim PTX: 8400000 instructions simulated : ctaid=(3,21,0) tid=(11,5,0)
GPGPU-Sim uArch: Shader 8 finished CTA #0 (16725,0), 7 CTAs running
GPGPU-Sim uArch: Shader 4 finished CTA #5 (16843,0), 7 CTAs running
GPGPU-Sim PTX: 8500000 instructions simulated : ctaid=(2,27,0) tid=(12,7,0)
GPGPU-Sim uArch: Shader 1 finished CTA #5 (16940,0), 6 CTAs running
GPGPU-Sim uArch: Shader 9 finished CTA #0 (16946,0), 6 CTAs running
GPGPU-Sim uArch: Shader 12 finished CTA #5 (16986,0), 6 CTAs running
GPGPU-Sim PTX: 8600000 instructions simulated : ctaid=(3,24,0) tid=(7,6,0)
GPGPU-Sim PTX: 8700000 instructions simulated : ctaid=(4,7,0) tid=(5,7,0)
GPGPU-Sim PTX: 8800000 instructions simulated : ctaid=(2,15,0) tid=(4,11,0)
GPGPU-Sim uArch: Shader 3 finished CTA #3 (17376,0), 5 CTAs running
GPGPU-Sim uArch: Shader 0 finished CTA #4 (17378,0), 7 CTAs running
GPGPU-Sim PTX: 8900000 instructions simulated : ctaid=(0,19,0) tid=(9,11,0)
GPGPU-Sim uArch: Shader 10 finished CTA #2 (17489,0), 6 CTAs running
GPGPU-Sim uArch: cycles simulated: 17500  inst.: 8889422 (ipc=508.0) sim_rate=404064 (inst/sec) elapsed = 0:0:00:22 / Tue Mar 22 12:56:53 2016
GPGPU-Sim uArch: Shader 9 finished CTA #4 (17521,0), 5 CTAs running
GPGPU-Sim uArch: Shader 11 finished CTA #2 (17601,0), 6 CTAs running
GPGPU-Sim PTX: 9000000 instructions simulated : ctaid=(3,25,0) tid=(3,2,0)
GPGPU-Sim uArch: Shader 12 finished CTA #2 (17757,0), 5 CTAs running
GPGPU-Sim PTX: 9100000 instructions simulated : ctaid=(3,22,0) tid=(4,6,0)
GPGPU-Sim uArch: Shader 11 finished CTA #5 (17793,0), 5 CTAs running
GPGPU-Sim PTX: 9200000 instructions simulated : ctaid=(3,21,0) tid=(12,8,0)
GPGPU-Sim uArch: Shader 1 finished CTA #6 (17953,0), 5 CTAs running
GPGPU-Sim uArch: Shader 2 finished CTA #3 (17994,0), 6 CTAs running
GPGPU-Sim uArch: cycles simulated: 18000  inst.: 9218506 (ipc=512.1) sim_rate=400804 (inst/sec) elapsed = 0:0:00:23 / Tue Mar 22 12:56:54 2016
GPGPU-Sim uArch: Shader 8 finished CTA #4 (18049,0), 6 CTAs running
GPGPU-Sim PTX: 9300000 instructions simulated : ctaid=(1,22,0) tid=(10,3,0)
GPGPU-Sim uArch: Shader 7 finished CTA #4 (18192,0), 6 CTAs running
GPGPU-Sim PTX: 9400000 instructions simulated : ctaid=(2,24,0) tid=(6,1,0)
GPGPU-Sim PTX: 9500000 instructions simulated : ctaid=(3,21,0) tid=(9,2,0)
GPGPU-Sim uArch: Shader 3 finished CTA #5 (18496,0), 4 CTAs running
GPGPU-Sim PTX: 9600000 instructions simulated : ctaid=(5,26,0) tid=(4,4,0)
GPGPU-Sim uArch: Shader 9 finished CTA #3 (18573,0), 4 CTAs running
GPGPU-Sim PTX: 9700000 instructions simulated : ctaid=(0,19,0) tid=(11,3,0)
GPGPU-Sim uArch: Shader 8 finished CTA #3 (18792,0), 5 CTAs running
GPGPU-Sim PTX: 9800000 instructions simulated : ctaid=(2,19,0) tid=(4,3,0)
GPGPU-Sim uArch: Shader 2 finished CTA #5 (18815,0), 5 CTAs running
GPGPU-Sim uArch: Shader 0 finished CTA #5 (18861,0), 6 CTAs running
GPGPU-Sim PTX: 9900000 instructions simulated : ctaid=(2,22,0) tid=(12,8,0)
GPGPU-Sim uArch: Shader 2 finished CTA #6 (18950,0), 4 CTAs running
GPGPU-Sim uArch: Shader 7 finished CTA #3 (18957,0), 5 CTAs running
GPGPU-Sim uArch: cycles simulated: 19000  inst.: 9899887 (ipc=521.0) sim_rate=412495 (inst/sec) elapsed = 0:0:00:24 / Tue Mar 22 12:56:55 2016
GPGPU-Sim uArch: Shader 13 finished CTA #5 (19022,0), 6 CTAs running
GPGPU-Sim uArch: Shader 4 finished CTA #7 (19064,0), 6 CTAs running
GPGPU-Sim uArch: Shader 3 finished CTA #6 (19067,0), 3 CTAs running
GPGPU-Sim PTX: 10000000 instructions simulated : ctaid=(5,20,0) tid=(9,7,0)
GPGPU-Sim uArch: Shader 10 finished CTA #5 (19128,0), 5 CTAs running
GPGPU-Sim uArch: Shader 6 finished CTA #7 (19165,0), 5 CTAs running
GPGPU-Sim uArch: Shader 1 finished CTA #7 (19209,0), 4 CTAs running
GPGPU-Sim PTX: 10100000 instructions simulated : ctaid=(5,18,0) tid=(11,3,0)
GPGPU-Sim uArch: Shader 14 finished CTA #5 (19293,0), 7 CTAs running
GPGPU-Sim uArch: Shader 11 finished CTA #7 (19317,0), 4 CTAs running
GPGPU-Sim uArch: Shader 0 finished CTA #6 (19326,0), 5 CTAs running
GPGPU-Sim uArch: Shader 4 finished CTA #6 (19367,0), 5 CTAs running
GPGPU-Sim PTX: 10200000 instructions simulated : ctaid=(1,27,0) tid=(5,10,0)
GPGPU-Sim uArch: cycles simulated: 19500  inst.: 10230777 (ipc=524.7) sim_rate=409231 (inst/sec) elapsed = 0:0:00:25 / Tue Mar 22 12:56:56 2016
GPGPU-Sim PTX: 10300000 instructions simulated : ctaid=(0,20,0) tid=(10,12,0)
GPGPU-Sim uArch: Shader 2 finished CTA #7 (19585,0), 3 CTAs running
GPGPU-Sim uArch: Shader 11 finished CTA #6 (19682,0), 3 CTAs running
GPGPU-Sim PTX: 10400000 instructions simulated : ctaid=(0,20,0) tid=(4,10,0)
GPGPU-Sim uArch: Shader 6 finished CTA #6 (19705,0), 4 CTAs running
GPGPU-Sim uArch: Shader 2 finished CTA #1 (19786,0), 2 CTAs running
GPGPU-Sim uArch: Shader 3 finished CTA #7 (19805,0), 2 CTAs running
GPGPU-Sim PTX: 10500000 instructions simulated : ctaid=(4,20,0) tid=(10,2,0)
GPGPU-Sim uArch: Shader 14 finished CTA #6 (19862,0), 6 CTAs running
GPGPU-Sim uArch: Shader 5 finished CTA #6 (19950,0), 4 CTAs running
GPGPU-Sim uArch: Shader 6 finished CTA #0 (19975,0), 3 CTAs running
GPGPU-Sim uArch: Shader 5 finished CTA #7 (19982,0), 3 CTAs running
GPGPU-Sim PTX: 10600000 instructions simulated : ctaid=(4,23,0) tid=(5,6,0)
GPGPU-Sim uArch: Shader 7 finished CTA #5 (20072,0), 4 CTAs running
GPGPU-Sim uArch: Shader 9 finished CTA #5 (20086,0), 3 CTAs running
GPGPU-Sim uArch: Shader 12 finished CTA #6 (20101,0), 4 CTAs running
GPGPU-Sim PTX: 10700000 instructions simulated : ctaid=(4,18,0) tid=(11,8,0)
GPGPU-Sim uArch: Shader 10 finished CTA #6 (20295,0), 4 CTAs running
GPGPU-Sim PTX: 10800000 instructions simulated : ctaid=(1,26,0) tid=(1,5,0)
GPGPU-Sim uArch: Shader 1 finished CTA #1 (20356,0), 3 CTAs running
GPGPU-Sim uArch: Shader 9 finished CTA #6 (20388,0), 2 CTAs running
GPGPU-Sim uArch: Shader 5 finished CTA #0 (20425,0), 2 CTAs running
GPGPU-Sim uArch: Shader 12 finished CTA #7 (20433,0), 3 CTAs running
GPGPU-Sim uArch: Shader 3 finished CTA #1 (20479,0), 1 CTAs running
GPGPU-Sim uArch: cycles simulated: 20500  inst.: 10842416 (ipc=528.9) sim_rate=417016 (inst/sec) elapsed = 0:0:00:26 / Tue Mar 22 12:56:57 2016
GPGPU-Sim uArch: Shader 7 finished CTA #6 (20522,0), 3 CTAs running
GPGPU-Sim uArch: Shader 13 finished CTA #6 (20525,0), 5 CTAs running
GPGPU-Sim PTX: 10900000 instructions simulated : ctaid=(0,27,0) tid=(7,2,0)
GPGPU-Sim uArch: Shader 11 finished CTA #0 (20564,0), 2 CTAs running
GPGPU-Sim uArch: Shader 5 finished CTA #1 (20699,0), 1 CTAs running
GPGPU-Sim PTX: 11000000 instructions simulated : ctaid=(3,25,0) tid=(1,8,0)
GPGPU-Sim uArch: Shader 6 finished CTA #3 (20769,0), 2 CTAs running
GPGPU-Sim uArch: Shader 0 finished CTA #2 (20790,0), 4 CTAs running
GPGPU-Sim uArch: Shader 8 finished CTA #5 (20813,0), 4 CTAs running
GPGPU-Sim uArch: Shader 12 finished CTA #1 (20835,0), 2 CTAs running
GPGPU-Sim uArch: Shader 0 finished CTA #7 (20895,0), 3 CTAs running
GPGPU-Sim uArch: Shader 2 finished CTA #2 (20895,0), 1 CTAs running
GPGPU-Sim PTX: 11100000 instructions simulated : ctaid=(0,25,0) tid=(10,6,0)
GPGPU-Sim uArch: Shader 4 finished CTA #0 (20942,0), 4 CTAs running
GPGPU-Sim uArch: Shader 9 finished CTA #7 (20963,0), 1 CTAs running
GPGPU-Sim uArch: Shader 10 finished CTA #7 (21144,0), 3 CTAs running
GPGPU-Sim PTX: 11200000 instructions simulated : ctaid=(3,20,0) tid=(0,12,0)
GPGPU-Sim uArch: Shader 1 finished CTA #2 (21161,0), 2 CTAs running
GPGPU-Sim uArch: Shader 14 finished CTA #0 (21210,0), 5 CTAs running
GPGPU-Sim uArch: Shader 14 finished CTA #7 (21296,0), 4 CTAs running
GPGPU-Sim uArch: Shader 12 finished CTA #0 (21342,0), 1 CTAs running
GPGPU-Sim uArch: Shader 8 finished CTA #6 (21365,0), 3 CTAs running
GPGPU-Sim PTX: 11300000 instructions simulated : ctaid=(5,24,0) tid=(3,4,0)
GPGPU-Sim uArch: Shader 7 finished CTA #7 (21394,0), 2 CTAs running
GPGPU-Sim uArch: Shader 4 finished CTA #3 (21419,0), 3 CTAs running
GPGPU-Sim uArch: Shader 11 finished CTA #1 (21483,0), 1 CTAs running
GPGPU-Sim uArch: cycles simulated: 21500  inst.: 11299786 (ipc=525.6) sim_rate=418510 (inst/sec) elapsed = 0:0:00:27 / Tue Mar 22 12:56:58 2016
GPGPU-Sim uArch: Shader 0 finished CTA #1 (21539,0), 2 CTAs running
GPGPU-Sim uArch: Shader 10 finished CTA #0 (21582,0), 2 CTAs running
GPGPU-Sim uArch: Shader 3 finished CTA #2 (21663,0), 0 CTAs running
GPGPU-Sim uArch: Shader 3 empty (release kernel 1 '_Z17executeFirstLayerPfS_S_').
GPGPU-Sim PTX: 11400000 instructions simulated : ctaid=(3,23,0) tid=(9,8,0)
GPGPU-Sim uArch: Shader 13 finished CTA #7 (21837,0), 4 CTAs running
GPGPU-Sim uArch: Shader 13 finished CTA #2 (21873,0), 3 CTAs running
GPGPU-Sim uArch: Shader 6 finished CTA #2 (21932,0), 1 CTAs running
GPGPU-Sim uArch: Shader 5 finished CTA #3 (21970,0), 0 CTAs running
GPGPU-Sim uArch: Shader 5 empty (release kernel 1 '_Z17executeFirstLayerPfS_S_').
GPGPU-Sim uArch: Shader 2 finished CTA #0 (22006,0), 0 CTAs running
GPGPU-Sim uArch: Shader 2 empty (release kernel 1 '_Z17executeFirstLayerPfS_S_').
GPGPU-Sim PTX: 11500000 instructions simulated : ctaid=(3,23,0) tid=(11,4,0)
GPGPU-Sim uArch: Shader 14 finished CTA #2 (22064,0), 3 CTAs running
GPGPU-Sim uArch: Shader 4 finished CTA #1 (22109,0), 2 CTAs running
GPGPU-Sim uArch: Shader 8 finished CTA #7 (22141,0), 2 CTAs running
GPGPU-Sim uArch: Shader 1 finished CTA #4 (22178,0), 1 CTAs running
GPGPU-Sim uArch: Shader 7 finished CTA #1 (22216,0), 1 CTAs running
GPGPU-Sim uArch: Shader 13 finished CTA #4 (22297,0), 2 CTAs running
GPGPU-Sim uArch: Shader 9 finished CTA #1 (22502,0), 0 CTAs running
GPGPU-Sim uArch: Shader 9 empty (release kernel 1 '_Z17executeFirstLayerPfS_S_').
GPGPU-Sim PTX: 11600000 instructions simulated : ctaid=(4,27,0) tid=(0,6,0)
GPGPU-Sim uArch: Shader 10 finished CTA #1 (22570,0), 1 CTAs running
GPGPU-Sim uArch: Shader 12 finished CTA #3 (22578,0), 0 CTAs running
GPGPU-Sim uArch: Shader 12 empty (release kernel 1 '_Z17executeFirstLayerPfS_S_').
GPGPU-Sim uArch: Shader 11 finished CTA #3 (22593,0), 0 CTAs running
GPGPU-Sim uArch: Shader 11 empty (release kernel 1 '_Z17executeFirstLayerPfS_S_').
GPGPU-Sim uArch: Shader 0 finished CTA #0 (22668,0), 1 CTAs running
GPGPU-Sim uArch: Shader 6 finished CTA #1 (22750,0), 0 CTAs running
GPGPU-Sim uArch: Shader 6 empty (release kernel 1 '_Z17executeFirstLayerPfS_S_').
GPGPU-Sim uArch: Shader 8 finished CTA #1 (23001,0), 1 CTAs running
GPGPU-Sim uArch: Shader 14 finished CTA #1 (23115,0), 2 CTAs running
GPGPU-Sim uArch: Shader 1 finished CTA #0 (23157,0), 0 CTAs running
GPGPU-Sim uArch: Shader 1 empty (release kernel 1 '_Z17executeFirstLayerPfS_S_').
GPGPU-Sim uArch: Shader 7 finished CTA #2 (23272,0), 0 CTAs running
GPGPU-Sim uArch: Shader 7 empty (release kernel 1 '_Z17executeFirstLayerPfS_S_').
GPGPU-Sim PTX: 11700000 instructions simulated : ctaid=(4,27,0) tid=(4,9,0)
GPGPU-Sim uArch: Shader 0 finished CTA #3 (23462,0), 0 CTAs running
GPGPU-Sim uArch: Shader 0 empty (release kernel 1 '_Z17executeFirstLayerPfS_S_').
GPGPU-Sim uArch: Shader 10 finished CTA #3 (23469,0), 0 CTAs running
GPGPU-Sim uArch: Shader 10 empty (release kernel 1 '_Z17executeFirstLayerPfS_S_').
GPGPU-Sim uArch: Shader 13 finished CTA #1 (23492,0), 1 CTAs running
GPGPU-Sim uArch: cycles simulated: 23500  inst.: 11664627 (ipc=496.4) sim_rate=416593 (inst/sec) elapsed = 0:0:00:28 / Tue Mar 22 12:56:59 2016
GPGPU-Sim uArch: Shader 4 finished CTA #2 (23518,0), 1 CTAs running
GPGPU-Sim uArch: Shader 14 finished CTA #3 (24108,0), 1 CTAs running
GPGPU-Sim uArch: Shader 8 finished CTA #2 (24240,0), 0 CTAs running
GPGPU-Sim uArch: Shader 8 empty (release kernel 1 '_Z17executeFirstLayerPfS_S_').
GPGPU-Sim uArch: Shader 4 finished CTA #4 (24404,0), 0 CTAs running
GPGPU-Sim uArch: Shader 4 empty (release kernel 1 '_Z17executeFirstLayerPfS_S_').
GPGPU-Sim uArch: Shader 13 finished CTA #0 (24653,0), 0 CTAs running
GPGPU-Sim uArch: Shader 13 empty (release kernel 1 '_Z17executeFirstLayerPfS_S_').
GPGPU-Sim uArch: Shader 14 finished CTA #4 (25122,0), 0 CTAs running
GPGPU-Sim uArch: Shader 14 empty (release kernel 1 '_Z17executeFirstLayerPfS_S_').
GPGPU-Sim uArch: GPU detected kernel '_Z17executeFirstLayerPfS_S_' finished on shader 14.
kernel_name = _Z17executeFirstLayerPfS_S_ 
kernel_launch_uid = 1 
gpu_sim_cycle = 25123
gpu_sim_insn = 11694074
gpu_ipc =     465.4728
gpu_tot_sim_cycle = 25123
gpu_tot_sim_insn = 11694074
gpu_tot_ipc =     465.4728
gpu_tot_issued_cta = 168
gpu_stall_dramfull = 25329
gpu_stall_icnt2sh    = 94086
gpu_total_sim_rate=417645

========= Core cache stats =========
L1I_cache:
	L1I_total_cache_accesses = 243880
	L1I_total_cache_misses = 1085
	L1I_total_cache_miss_rate = 0.0044
	L1I_total_cache_pending_hits = 0
	L1I_total_cache_reservation_fails = 4140
L1D_cache:
	L1D_cache_core[0]: Access = 10249, Miss = 1362, Miss_rate = 0.133, Pending_hits = 417, Reservation_fails = 4857
	L1D_cache_core[1]: Access = 10186, Miss = 1175, Miss_rate = 0.115, Pending_hits = 216, Reservation_fails = 4381
	L1D_cache_core[2]: Access = 9393, Miss = 1239, Miss_rate = 0.132, Pending_hits = 213, Reservation_fails = 4910
	L1D_cache_core[3]: Access = 8511, Miss = 1321, Miss_rate = 0.155, Pending_hits = 274, Reservation_fails = 5883
	L1D_cache_core[4]: Access = 11125, Miss = 1242, Miss_rate = 0.112, Pending_hits = 235, Reservation_fails = 4082
	L1D_cache_core[5]: Access = 9378, Miss = 1329, Miss_rate = 0.142, Pending_hits = 204, Reservation_fails = 4693
	L1D_cache_core[6]: Access = 10234, Miss = 1313, Miss_rate = 0.128, Pending_hits = 207, Reservation_fails = 4202
	L1D_cache_core[7]: Access = 8527, Miss = 1222, Miss_rate = 0.143, Pending_hits = 446, Reservation_fails = 7581
	L1D_cache_core[8]: Access = 8533, Miss = 1482, Miss_rate = 0.174, Pending_hits = 512, Reservation_fails = 8886
	L1D_cache_core[9]: Access = 7682, Miss = 1169, Miss_rate = 0.152, Pending_hits = 421, Reservation_fails = 8381
	L1D_cache_core[10]: Access = 9377, Miss = 1648, Miss_rate = 0.176, Pending_hits = 352, Reservation_fails = 6720
	L1D_cache_core[11]: Access = 9345, Miss = 1393, Miss_rate = 0.149, Pending_hits = 263, Reservation_fails = 5599
	L1D_cache_core[12]: Access = 9343, Miss = 1584, Miss_rate = 0.170, Pending_hits = 277, Reservation_fails = 5539
	L1D_cache_core[13]: Access = 10239, Miss = 1320, Miss_rate = 0.129, Pending_hits = 426, Reservation_fails = 6302
	L1D_cache_core[14]: Access = 11080, Miss = 1134, Miss_rate = 0.102, Pending_hits = 386, Reservation_fails = 4771
	L1D_total_cache_accesses = 143202
	L1D_total_cache_misses = 19933
	L1D_total_cache_miss_rate = 0.1392
	L1D_total_cache_pending_hits = 4849
	L1D_total_cache_reservation_fails = 86787
	L1D_cache_data_port_util = 0.340
	L1D_cache_fill_port_util = 0.052
L1C_cache:
	L1C_total_cache_accesses = 28224
	L1C_total_cache_misses = 992
	L1C_total_cache_miss_rate = 0.0351
	L1C_total_cache_pending_hits = 0
	L1C_total_cache_reservation_fails = 0
L1T_cache:
	L1T_total_cache_accesses = 0
	L1T_total_cache_misses = 0
	L1T_total_cache_pending_hits = 0
	L1T_total_cache_reservation_fails = 0

Total_core_cache_stats:
	Total_core_cache_stats_breakdown[GLOBAL_ACC_R][HIT] = 118420
	Total_core_cache_stats_breakdown[GLOBAL_ACC_R][HIT_RESERVED] = 4849
	Total_core_cache_stats_breakdown[GLOBAL_ACC_R][MISS] = 18073
	Total_core_cache_stats_breakdown[GLOBAL_ACC_R][RESERVATION_FAIL] = 86089
	Total_core_cache_stats_breakdown[CONST_ACC_R][HIT] = 27232
	Total_core_cache_stats_breakdown[CONST_ACC_R][MISS] = 992
	Total_core_cache_stats_breakdown[GLOBAL_ACC_W][MISS] = 1860
	Total_core_cache_stats_breakdown[GLOBAL_ACC_W][RESERVATION_FAIL] = 698
	Total_core_cache_stats_breakdown[INST_ACC_R][HIT] = 242795
	Total_core_cache_stats_breakdown[INST_ACC_R][MISS] = 1085
	Total_core_cache_stats_breakdown[INST_ACC_R][RESERVATION_FAIL] = 4140
Shader 0 warp_id issue ditsribution:
warp_id:
0, 1, 2, 3, 4, 5, 6, 7, 8, 9, 10, 11, 12, 13, 14, 15, 16, 17, 18, 19, 20, 21, 22, 23, 24, 25, 26, 27, 28, 29, 30, 31, 32, 33, 34, 35, 36, 37, 38, 39, 40, 41, 42, 43, 44, 45, 46, 47, 
distro:
874, 874, 874, 874, 874, 816, 874, 874, 874, 874, 874, 816, 874, 874, 874, 874, 874, 874, 845, 874, 874, 874, 874, 845, 437, 437, 437, 437, 437, 437, 437, 437, 437, 437, 437, 408, 437, 437, 437, 437, 437, 437, 437, 437, 437, 437, 437, 408, 
gpgpu_n_tot_thrd_icount = 13976224
gpgpu_n_tot_w_icount = 436757
gpgpu_n_stall_shd_mem = 177573
gpgpu_n_mem_read_local = 0
gpgpu_n_mem_write_local = 0
gpgpu_n_mem_read_global = 18073
gpgpu_n_mem_write_global = 1860
gpgpu_n_mem_texture = 0
gpgpu_n_mem_const = 45
gpgpu_n_load_insn  = 1447992
gpgpu_n_store_insn = 28392
gpgpu_n_shmem_insn = 0
gpgpu_n_tex_insn = 0
gpgpu_n_const_mem_insn = 709800
gpgpu_n_param_mem_insn = 85176
gpgpu_n_shmem_bkconflict = 0
gpgpu_n_cache_bkconflict = 0
gpgpu_n_intrawarp_mshr_merge = 0
gpgpu_n_cmem_portconflict = 0
gpgpu_stall_shd_mem[c_mem][bk_conf] = 0
gpgpu_stall_shd_mem[c_mem][mshr_rc] = 0
gpgpu_stall_shd_mem[c_mem][icnt_rc] = 0
gpgpu_stall_shd_mem[c_mem][data_port_stall] = 0
gpgpu_stall_shd_mem[t_mem][mshr_rc] = 0
gpgpu_stall_shd_mem[t_mem][icnt_rc] = 0
gpgpu_stall_shd_mem[t_mem][data_port_stall] = 0
gpgpu_stall_shd_mem[s_mem][bk_conf] = 0
gpgpu_stall_shd_mem[gl_mem][bk_conf] = 0
gpgpu_stall_shd_mem[gl_mem][coal_stall] = 177573
gpgpu_stall_shd_mem[gl_mem][data_port_stall] = 0
gpgpu_stall_shd_mem[g_mem_ld][mshr_rc] = 0
gpgpu_stall_shd_mem[g_mem_ld][icnt_rc] = 0
gpgpu_stall_shd_mem[g_mem_ld][wb_icnt_rc] = 0
gpgpu_stall_shd_mem[g_mem_ld][wb_rsrv_fail] = 0
gpgpu_stall_shd_mem[g_mem_st][mshr_rc] = 0
gpgpu_stall_shd_mem[g_mem_st][icnt_rc] = 0
gpgpu_stall_shd_mem[g_mem_st][wb_icnt_rc] = 0
gpgpu_stall_shd_mem[g_mem_st][wb_rsrv_fail] = 0
gpgpu_stall_shd_mem[l_mem_ld][mshr_rc] = 0
gpgpu_stall_shd_mem[l_mem_ld][icnt_rc] = 0
gpgpu_stall_shd_mem[l_mem_ld][wb_icnt_rc] = 0
gpgpu_stall_shd_mem[l_mem_ld][wb_rsrv_fail] = 0
gpgpu_stall_shd_mem[l_mem_st][mshr_rc] = 0
gpgpu_stall_shd_mem[l_mem_st][icnt_rc] = 0
gpgpu_stall_shd_mem[l_mem_ld][wb_icnt_rc] = 0
gpgpu_stall_shd_mem[l_mem_ld][wb_rsrv_fail] = 0
gpu_reg_bank_conflict_stalls = 0
Warp Occupancy Distribution:
Stall:177151	W0_Idle:25368	W0_Scoreboard:56436	W1:1617	W2:1706	W3:1602	W4:1573	W5:1910	W6:2148	W7:2029	W8:1839	W9:69677	W10:1230	W11:880	W12:982	W13:1064	W14:1298	W15:978	W16:903	W17:828	W18:938	W19:914	W20:652	W21:625	W22:705	W23:1064	W24:1036	W25:1062	W26:1332	W27:1100	W28:1093	W29:981	W30:664	W31:754	W32:331573
traffic_breakdown_coretomem[CONST_ACC_R] = 360 {8:45,}
traffic_breakdown_coretomem[GLOBAL_ACC_R] = 144584 {8:18073,}
traffic_breakdown_coretomem[GLOBAL_ACC_W] = 172800 {40:499,72:504,136:857,}
traffic_breakdown_coretomem[INST_ACC_R] = 840 {8:105,}
traffic_breakdown_memtocore[CONST_ACC_R] = 3240 {72:45,}
traffic_breakdown_memtocore[GLOBAL_ACC_R] = 2457928 {136:18073,}
traffic_breakdown_memtocore[GLOBAL_ACC_W] = 14880 {8:1860,}
traffic_breakdown_memtocore[INST_ACC_R] = 14280 {136:105,}
maxmrqlatency = 62 
maxdqlatency = 0 
maxmflatency = 899 
averagemflatency = 248 
max_icnt2mem_latency = 616 
max_icnt2sh_latency = 25122 
mrq_lat_table:1589 	416 	142 	205 	197 	48 	0 	0 	0 	0 	0 	0 	0 	0 	0 	0 	0 	0 	0 	0 	0 	0 	0 	0 	0 	0 	0 	0 	0 	0 	0 	0 	
dq_lat_table:0 	0 	0 	0 	0 	0 	0 	0 	0 	0 	0 	0 	0 	0 	0 	0 	0 	0 	0 	0 	0 	0 	0 	0 	0 	0 	0 	0 	0 	0 	0 	0 	
mf_lat_table:0 	0 	0 	0 	0 	0 	0 	12821 	6477 	680 	0 	0 	0 	0 	0 	0 	0 	0 	0 	0 	0 	0 	0 	0 	0 	0 	0 	0 	0 	0 	0 	0 	
icnt2mem_lat_table:0 	0 	0 	13831 	2118 	1194 	1595 	1099 	240 	6 	0 	0 	0 	0 	0 	0 	0 	0 	0 	0 	0 	0 	0 	0 	
icnt2sh_lat_table:0 	0 	0 	2292 	10132 	5453 	241 	0 	0 	0 	0 	0 	27 	872 	961 	0 	0 	0 	0 	0 	0 	0 	0 	0 	
mf_lat_pw_table:0 	0 	0 	0 	0 	0 	0 	39 	10 	0 	0 	0 	0 	0 	0 	0 	0 	0 	0 	0 	0 	0 	0 	0 	0 	0 	0 	0 	0 	0 	0 	0 	
maximum concurrent accesses to same row:
dram[0]:         1         0         0         0         0         0         0         0         0         0         0         0         0         0         0         0 
dram[1]:         1         0         0         0         0         0         0         0         0         0         0         0         0         0         0         0 
dram[2]:         0         0         0         0         0         0         0         0         0         0         0         0         0         0         0         0 
dram[3]:         0         0         0         0         0         0         0         0         0         0         0         0         0         0         0         0 
dram[4]:         0         0         0         0         0         0         0         0         0         0         0         0         0         0         0         0 
dram[5]:         0         0         0         0         0         0         0         0         0         0         0         0         0         0         0         0 
maximum service time to same row:
dram[0]:       319         0         0         0      1504      1525      1926      1934      7893       838      8160      8527     17035     16454         0         0 
dram[1]:      2128         0         0         0      1504      1521      1996      1822      8071      7869      8304      8587     17731     16447         0         0 
dram[2]:      6122         0         0         0      1501      1497      2007      1932      8018      7866      8837      8968     17121     16629         0         0 
dram[3]:      7094         0         0         0      1529      1491      1747      2015      8207      8038      8313      9235     16829     16546         0         0 
dram[4]:         0         0         0         0      1526      1510      1924      2012       834      8047      8402      7910     16825     15772         0         0 
dram[5]:         0         0         0         0      1538      1507      1949      1968       841      8104      8518      7907     17504     15769         0         0 
average row accesses per activate:
dram[0]:  1.000000      -nan      -nan      -nan 10.000000 10.000000 32.000000 32.000000 45.000000 45.000000 66.000000 66.000000 63.000000 62.000000      -nan      -nan 
dram[1]:  3.000000      -nan      -nan      -nan 10.000000 10.000000 32.000000 32.000000 46.000000 47.000000 66.000000 66.000000 62.000000 58.000000      -nan      -nan 
dram[2]:  2.000000      -nan      -nan      -nan 10.000000 12.000000 32.000000 32.000000 47.000000 47.000000 67.000000 67.000000 63.000000 59.000000      -nan      -nan 
dram[3]:  1.000000      -nan      -nan      -nan 10.000000 12.000000 32.000000 32.000000 48.000000 49.000000 66.000000 65.000000 62.000000 58.000000      -nan      -nan 
dram[4]:      -nan      -nan      -nan      -nan 10.000000 12.000000 32.000000 32.000000 44.000000 47.000000 65.000000 65.000000 63.000000 57.000000      -nan      -nan 
dram[5]:      -nan      -nan      -nan      -nan 10.000000 12.000000 32.000000 32.000000 45.000000 48.000000 64.000000 68.000000 63.000000 57.000000      -nan      -nan 
average row locality = 2597/66 = 39.348484
number of total memory accesses made:
dram[0]:         0         0         0         0         0         0         0         0         0         0         0         0         0         0         0         0 
dram[1]:         0         0         0         0         0         0         0         0         0         0         0         0         0         0         0         0 
dram[2]:         0         0         0         0         0         0         0         0         0         0         0         0         0         0         0         0 
dram[3]:         0         0         0         0         0         0         0         0         0         0         0         0         0         0         0         0 
dram[4]:         0         0         0         0         0         0         0         0         0         0         0         0         0         0         0         0 
dram[5]:         0         0         0         0         0         0         0         0         0         0         0         0         0         0         0         0 
total accesses: 0
min_bank_accesses = 0!
min_chip_accesses = 0!
number of total read accesses:
dram[0]:         3         0         0         0        10        10        32        32        32        31        32        32        30        30         0         0 
dram[1]:         3         0         0         0        10        10        32        32        32        32        32        32        30        28         0         0 
dram[2]:         2         0         0         0        10        12        32        32        32        32        32        32        30        28         0         0 
dram[3]:         1         0         0         0        10        12        32        32        32        32        32        32        30        28         0         0 
dram[4]:         0         0         0         0        10        12        32        32        32        32        32        32        30        28         0         0 
dram[5]:         0         0         0         0        10        12        32        32        32        32        32        32        30        28         0         0 
total reads: 1638
min_bank_accesses = 0!
chip skew: 274/272 = 1.01
number of total write accesses:
dram[0]:         0         0         0         0         0         0         0         0        13        14        34        34        33        32         0         0 
dram[1]:         0         0         0         0         0         0         0         0        14        15        34        34        32        30         0         0 
dram[2]:         0         0         0         0         0         0         0         0        15        15        35        35        33        31         0         0 
dram[3]:         0         0         0         0         0         0         0         0        16        17        34        33        32        30         0         0 
dram[4]:         0         0         0         0         0         0         0         0        12        15        33        33        33        29         0         0 
dram[5]:         0         0         0         0         0         0         0         0        13        16        32        36        33        29         0         0 
total reads: 959
min_bank_accesses = 0!
chip skew: 164/155 = 1.06
average mf latency per bank:
dram[0]:       1296    none      none      none       12844      6330     10643      7748      2211      1594       315       284       206       206    none      none  
dram[1]:       3012    none      none      none       15963      4841     14796      6688      2951       953       451       238       205       207    none      none  
dram[2]:          0    none      none      none        8346      6979      7372      3952      1067       919       269       230       207       205    none      none  
dram[3]:          0    none      none      none        5409      6647      5524      4307      1134       820       261       224       210       203    none      none  
dram[4]:     none      none      none      none        6749      4503      4055      7059      2833       984       256       236       211       205    none      none  
dram[5]:     none      none      none      none        5323      4435      5491      8742      2695      1206       265       259       211       203    none      none  
maximum mf latency per bank:
dram[0]:        281         0         0         0       533       672       585       563       537       598       589       527       325       326         0         0
dram[1]:        529         0         0         0       899       646       839       581       651       381       670       413       294       315         0         0
dram[2]:          0         0         0         0       833       564       783       486       504       365       513       476       358       282         0         0
dram[3]:          0         0         0         0       615       641       603       505       469       357       455       352       296       289         0         0
dram[4]:          0         0         0         0       609       585       595       588       421       476       508       441       324       298         0         0
dram[5]:          0         0         0         0       569       585       539       647       416       505       453       405       304       366         0         0

Number of Memory Banks Accessed per Memory Operation per Warp (from 0):
0	0	0	0	0	0	0	0	0	0	0	0	0	0	0	0	0	0	0	0	0	0	0	0	0	0	0	0	0	0	0	0	0	0	0	0	0	0	0	0	0	0	0	0	0	0	0	0	0	0	0	0	0	0	0	0	0	0	0	0	0	0	0	0	0	0	0	0	0	0	0	0	0	0	0	0	0	0	0	0	0	0	0	0	0	0	0	0	0	0	0	0	0	0	0	0	
Average # of Memory Banks Accessed per Memory Operation per Warp=-nan

position of mrq chosen
0	0	0	0	0	0	0	0	0	0	0	0	0	0	0	0	

average position of mrq chosen = -nan
Memory Partition 0: 
Cache L2_bank_000:
MSHR contents

Cache L2_bank_001:
MSHR contents

In Dram Latency Queue (total = 0): 
DRAM[0]: 16 bks, busW=4 BL=8 CL=12, tRRD=2 tCCD=6, tRCD=12 tRAS=28 tRP=12 tRC=40
n_cmd=33162 n_nop=32358 n_act=13 n_pre=2 n_req=434 n_rd=548 n_write=241 bw_util=0.04758
n_activity=5583 dram_eff=0.2826
bk0: 6a 33086i bk1: 0a 33157i bk2: 0a 33162i bk3: 0a 33163i bk4: 20a 33101i bk5: 20a 33103i bk6: 64a 32991i bk7: 64a 32974i bk8: 64a 32749i bk9: 62a 32782i bk10: 64a 32466i bk11: 64a 32484i bk12: 60a 32525i bk13: 60a 32481i bk14: 0a 33158i bk15: 0a 33159i 
dram_util_bins: 0 0 0 0 0 0 0 0 0 0
dram_eff_bins: 0 0 0 0 0 0 0 0 0 0
mrqq: max=6 avg=0.0704722
Memory Partition 1: 
Cache L2_bank_002:
MSHR contents

Cache L2_bank_003:
MSHR contents

In Dram Latency Queue (total = 0): 
DRAM[1]: 16 bks, busW=4 BL=8 CL=12, tRRD=2 tCCD=6, tRCD=12 tRAS=28 tRP=12 tRC=40
n_cmd=33162 n_nop=32361 n_act=12 n_pre=1 n_req=432 n_rd=546 n_write=242 bw_util=0.04752
n_activity=5607 dram_eff=0.2811
bk0: 6a 33113i bk1: 0a 33161i bk2: 0a 33164i bk3: 0a 33164i bk4: 20a 33104i bk5: 20a 33095i bk6: 64a 33015i bk7: 64a 32969i bk8: 64a 32786i bk9: 64a 32737i bk10: 64a 32497i bk11: 64a 32446i bk12: 60a 32552i bk13: 56a 32555i bk14: 0a 33157i bk15: 0a 33158i 
dram_util_bins: 0 0 0 0 0 0 0 0 0 0
dram_eff_bins: 0 0 0 0 0 0 0 0 0 0
mrqq: max=6 avg=0.0629033
Memory Partition 2: 
Cache L2_bank_004:
MSHR contents

Cache L2_bank_005:
MSHR contents

In Dram Latency Queue (total = 0): 
DRAM[2]: 16 bks, busW=4 BL=8 CL=12, tRRD=2 tCCD=6, tRCD=12 tRAS=28 tRP=12 tRC=40
n_cmd=33162 n_nop=32366 n_act=11 n_pre=0 n_req=438 n_rd=548 n_write=237 bw_util=0.04734
n_activity=5453 dram_eff=0.2879
bk0: 4a 33139i bk1: 0a 33159i bk2: 0a 33161i bk3: 0a 33164i bk4: 20a 33102i bk5: 24a 33063i bk6: 64a 32967i bk7: 64a 33003i bk8: 64a 32770i bk9: 64a 32748i bk10: 64a 32329i bk11: 64a 32502i bk12: 60a 32527i bk13: 56a 32498i bk14: 0a 33158i bk15: 0a 33160i 
dram_util_bins: 0 0 0 0 0 0 0 0 0 0
dram_eff_bins: 0 0 0 0 0 0 0 0 0 0
mrqq: max=6 avg=0.069447
Memory Partition 3: 
Cache L2_bank_006:
MSHR contents

Cache L2_bank_007:
MSHR contents

In Dram Latency Queue (total = 0): 
DRAM[3]: 16 bks, busW=4 BL=8 CL=12, tRRD=2 tCCD=6, tRCD=12 tRAS=28 tRP=12 tRC=40
n_cmd=33162 n_nop=32360 n_act=11 n_pre=0 n_req=435 n_rd=546 n_write=245 bw_util=0.04771
n_activity=5515 dram_eff=0.2869
[...]
gpgpu_stall_shd_mem[l_mem_ld][wb_icnt_rc] = 0
gpgpu_stall_shd_mem[l_mem_ld][wb_rsrv_fail] = 0
gpgpu_stall_shd_mem[l_mem_st][mshr_rc] = 0
gpgpu_stall_shd_mem[l_mem_st][icnt_rc] = 0
gpgpu_stall_shd_mem[l_mem_ld][wb_icnt_rc] = 0
gpgpu_stall_shd_mem[l_mem_ld][wb_rsrv_fail] = 0
gpu_reg_bank_conflict_stalls = 0
Warp Occupancy Distribution:
Stall:797310	W0_Idle:80886	W0_Scoreboard:1176848	W1:2597	W2:3581	W3:4068	W4:3798	W5:4566	W6:4331	W7:4364	W8:4137	W9:72206	W10:3671	W11:2610	W12:2826	W13:3133	W14:3223	W15:3869	W16:3792	W17:3561	W18:3978	W19:4192	W20:4403	W21:3990	W22:4431	W23:3704	W24:2421	W25:1078195	W26:1332	W27:1100	W28:1093	W29:981	W30:664	W31:754	W32:331573
traffic_breakdown_coretomem[CONST_ACC_R] = 600 {8:75,}
traffic_breakdown_coretomem[GLOBAL_ACC_R] = 335064 {8:41883,}
traffic_breakdown_coretomem[GLOBAL_ACC_W] = 394000 {40:1199,72:1204,136:1907,}
traffic_breakdown_coretomem[INST_ACC_R] = 1680 {8:210,}
traffic_breakdown_memtocore[CONST_ACC_R] = 5400 {72:75,}
traffic_breakdown_memtocore[GLOBAL_ACC_R] = 5696088 {136:41883,}
traffic_breakdown_memtocore[GLOBAL_ACC_W] = 34480 {8:4310,}
traffic_breakdown_memtocore[INST_ACC_R] = 28560 {136:210,}
maxmrqlatency = 125 
maxdqlatency = 0 
maxmflatency = 899 
averagemflatency = 197 
max_icnt2mem_latency = 616 
max_icnt2sh_latency = 124387 
mrq_lat_table:3293 	805 	221 	374 	401 	80 	25 	0 	0 	0 	0 	0 	0 	0 	0 	0 	0 	0 	0 	0 	0 	0 	0 	0 	0 	0 	0 	0 	0 	0 	0 	0 	
dq_lat_table:0 	0 	0 	0 	0 	0 	0 	0 	0 	0 	0 	0 	0 	0 	0 	0 	0 	0 	0 	0 	0 	0 	0 	0 	0 	0 	0 	0 	0 	0 	0 	0 	
mf_lat_table:0 	0 	0 	0 	0 	0 	0 	38133 	7455 	680 	0 	0 	0 	0 	0 	0 	0 	0 	0 	0 	0 	0 	0 	0 	0 	0 	0 	0 	0 	0 	0 	0 	
icnt2mem_lat_table:0 	0 	0 	39665 	2633 	1240 	1595 	1099 	240 	6 	0 	0 	0 	0 	0 	0 	0 	0 	0 	0 	0 	0 	0 	0 	
icnt2sh_lat_table:0 	0 	0 	17533 	17778 	6391 	256 	0 	0 	0 	0 	0 	27 	872 	961 	872 	1578 	0 	0 	0 	0 	0 	0 	0 	
mf_lat_pw_table:0 	0 	0 	0 	0 	0 	0 	237 	11 	0 	0 	0 	0 	0 	0 	0 	0 	0 	0 	0 	0 	0 	0 	0 	0 	0 	0 	0 	0 	0 	0 	0 	
maximum concurrent accesses to same row:
dram[0]:         1         2         0         0        10        10         0         0         0         0         0         0         0         0         0         0 
dram[1]:         2         0         0         0        10        10         0         0         0         0         0         0         0         0         0         0 
dram[2]:         2         0         0         0        10        12         0         0         0         0         0         0         0         0         0         0 
dram[3]:         2         0         0         0        10        12         0         0         0         0         0         0         0         0         0         0 
dram[4]:         2         0         0         0        10        12         0         0         0         0         0         0         0         0         0         0 
dram[5]:         2         0         0         0        10        12         0         0         0         0         0         0         0         0         0         0 
maximum service time to same row:
dram[0]:     19247     12091     54554     55499     85025     85510      1926      1934      7893       838      8160      8527     17035     16454       282       288 
dram[1]:     19452     22679     54696     56575     85112     86098      1996      1822      8071      7869      8304      8587     17731     16447       288       282 
dram[2]:     14710     23063     55012     55243     85380     86632      2007      1932      8018      7866      8837      8968     17121     16629       282       291 
dram[3]:     13735     23057     55006     55354     85577     86338      1747      2015      8207      8038      8313      9235     16829     16546       285       285 
dram[4]:     20594     23397     55203     55352     85693     86462      1924      2012       834      8047      8402      7910     16825     15772       285       285 
dram[5]:     12381     25169     54625     55900     85500     86814      1949      1968       841      8104      8518      7907     17504     15769       283       305 
average row accesses per activate:
dram[0]: 18.000000 35.000000 71.000000 68.000000 20.500000 18.500000 32.000000 32.000000 45.000000 45.000000 66.000000 66.000000 65.000000 64.000000 49.000000 47.000000 
dram[1]: 24.333334 64.000000 67.000000 70.000000 19.000000 18.000000 32.000000 32.000000 46.000000 47.000000 66.000000 66.000000 64.000000 62.000000 48.000000 47.000000 
dram[2]: 35.000000 73.000000 68.000000 67.000000 20.500000 18.000000 32.000000 32.000000 47.000000 47.000000 67.000000 67.000000 65.000000 63.000000 48.000000 48.000000 
dram[3]: 34.500000 72.000000 67.000000 70.000000 20.000000 18.000000 32.000000 32.000000 48.000000 49.000000 66.000000 65.000000 64.000000 62.000000 47.000000 49.000000 
dram[4]: 33.500000 70.000000 66.000000 67.000000 18.500000 19.500000 32.000000 32.000000 44.000000 47.000000 65.000000 65.000000 65.000000 61.000000 48.000000 50.000000 
dram[5]: 37.500000 68.000000 69.000000 71.000000 18.500000 20.500000 32.000000 32.000000 45.000000 48.000000 64.000000 68.000000 65.000000 61.000000 50.000000 51.000000 
average row locality = 5199/118 = 44.059322
number of total memory accesses made:
dram[0]:         0         0         0         0         0         0         0         0         0         0         0         0         0         0         0         0 
dram[1]:         0         0         0         0         0         0         0         0         0         0         0         0         0         0         0         0 
dram[2]:         0         0         0         0         0         0         0         0         0         0         0         0         0         0         0         0 
dram[3]:         0         0         0         0         0         0         0         0         0         0         0         0         0         0         0         0 
dram[4]:         0         0         0         0         0         0         0         0         0         0         0         0         0         0         0         0 
dram[5]:         0         0         0         0         0         0         0         0         0         0         0         0         0         0         0         0 
total accesses: 0
min_bank_accesses = 0!
min_chip_accesses = 0!
number of total read accesses:
dram[0]:        35        34        32        32        24        22        32        32        32        31        32        32        32        32        32        32 
dram[1]:        36        32        32        32        24        22        32        32        32        32        32        32        32        32        32        32 
dram[2]:        34        32        32        32        24        24        32        32        32        32        32        32        32        32        32        32 
dram[3]:        34        32        32        32        24        24        32        32        32        32        32        32        32        32        32        32 
dram[4]:        34        32        32        32        22        24        32        32        32        32        32        32        32        32        32        32 
dram[5]:        34        32        32        32        22        24        32        32        32        32        32        32        32        32        32        32 
total reads: 2984
bank skew: 36/22 = 1.64
chip skew: 498/496 = 1.00
number of total write accesses:
dram[0]:        37        36        39        36        17        15         0         0        13        14        34        34        33        32        17        15 
dram[1]:        37        32        35        38        14        14         0         0        14        15        34        34        32        30        16        15 
dram[2]:        36        41        36        35        17        12         0         0        15        15        35        35        33        31        16        16 
dram[3]:        35        40        35        38        16        12         0         0        16        17        34        33        32        30        15        17 
dram[4]:        33        38        34        35        15        15         0         0        12        15        33        33        33        29        16        18 
dram[5]:        41        36        37        39        15        17         0         0        13        16        32        36        33        29        18        19 
total reads: 2215
min_bank_accesses = 0!
chip skew: 381/359 = 1.06
average mf latency per bank:
dram[0]:        255       202       202       212      3291      1856     10643      7748      3369      2432      1459      1616      1453      1454      2160      1998
dram[1]:        395       214       212       211      4362      1496     14796      6688      3865      2048      1684      1536      1517      1688      1998      2191
dram[2]:        205       204       206       213      2195      2471      7372      3952      1949      2151      1478      1460      1574      1606      2030      2071
dram[3]:        201       211       212       204      1506      2364      5524      4307      2016      1625      1568      1435      1523      1742      2198      1634
dram[4]:        207       207       215       212      1972      1529      4055      7059      4008      1882      1544      1520      1603      1642      1834      1890
dram[5]:        197       215       212       202      1581      1444      5491      8742      3539      2154      1583      1442      1459      1678      2020      1696
maximum mf latency per bank:
dram[0]:        281       282       272       281       533       672       585       563       537       598       589       527       325       326       338       308
dram[1]:        529       274       271       304       899       646       839       581       651       381       670       413       294       315       336       363
dram[2]:        271       272       286       273       833       564       783       486       504       365       513       476       358       282       321       344
dram[3]:        286       288       273       275       615       641       603       505       469       357       455       352       296       289       363       373
dram[4]:        275       267       286       276       609       585       595       588       421       476       508       441       324       298       397       425
dram[5]:        308       275       287       283       569       585       539       647       416       505       453       405       304       366       349       372

Number of Memory Banks Accessed per Memory Operation per Warp (from 0):
0	0	0	0	0	0	0	0	0	0	0	0	0	0	0	0	0	0	0	0	0	0	0	0	0	0	0	0	0	0	0	0	0	0	0	0	0	0	0	0	0	0	0	0	0	0	0	0	0	0	0	0	0	0	0	0	0	0	0	0	0	0	0	0	0	0	0	0	0	0	0	0	0	0	0	0	0	0	0	0	0	0	0	0	0	0	0	0	0	0	0	0	0	0	0	0	
Average # of Memory Banks Accessed per Memory Operation per Warp=-nan

position of mrq chosen
0	0	0	0	0	0	0	0	0	0	0	0	0	0	0	0	

average position of mrq chosen = -nan
Memory Partition 0: 
Cache L2_bank_000:
MSHR contents

Cache L2_bank_001:
MSHR contents

In Dram Latency Queue (total = 0): 
DRAM[0]: 16 bks, busW=4 BL=8 CL=12, tRRD=2 tCCD=6, tRCD=12 tRAS=28 tRP=12 tRC=40
n_cmd=164191 n_nop=162624 n_act=22 n_pre=6 n_req=870 n_rd=996 n_write=543 bw_util=0.01875
n_activity=11569 dram_eff=0.2661
bk0: 70a 163496i bk1: 68a 163578i bk2: 64a 163554i bk3: 64a 163582i bk4: 48a 163828i bk5: 44a 163891i bk6: 64a 164014i bk7: 64a 163999i bk8: 64a 163775i bk9: 62a 163809i bk10: 64a 163495i bk11: 64a 163516i bk12: 64a 163549i bk13: 64a 163505i bk14: 64a 163771i bk15: 64a 163814i 
dram_util_bins: 0 0 0 0 0 0 0 0 0 0
dram_eff_bins: 0 0 0 0 0 0 0 0 0 0
mrqq: max=6 avg=0.0237163
Memory Partition 1: 
Cache L2_bank_002:
MSHR contents

Cache L2_bank_003:
MSHR contents

In Dram Latency Queue (total = 0): 
DRAM[1]: 16 bks, busW=4 BL=8 CL=12, tRRD=2 tCCD=6, tRCD=12 tRAS=28 tRP=12 tRC=40
n_cmd=164191 n_nop=162641 n_act=21 n_pre=5 n_req=858 n_rd=996 n_write=528 bw_util=0.01856
n_activity=11405 dram_eff=0.2673
bk0: 72a 163491i bk1: 64a 163618i bk2: 64a 163614i bk3: 64a 163584i bk4: 48a 163850i bk5: 44a 163864i bk6: 64a 164038i bk7: 64a 163994i bk8: 64a 163811i bk9: 64a 163765i bk10: 64a 163527i bk11: 64a 163479i bk12: 64a 163578i bk13: 64a 163565i bk14: 64a 163769i bk15: 64a 163753i 
dram_util_bins: 0 0 0 0 0 0 0 0 0 0
dram_eff_bins: 0 0 0 0 0 0 0 0 0 0
mrqq: max=8 avg=0.0239294
Memory Partition 2: 
Cache L2_bank_004:
MSHR contents

Cache L2_bank_005:
MSHR contents

In Dram Latency Queue (total = 0): 
DRAM[2]: 16 bks, busW=4 BL=8 CL=12, tRRD=2 tCCD=6, tRCD=12 tRAS=28 tRP=12 tRC=40
n_cmd=164191 n_nop=162635 n_act=19 n_pre=3 n_req=871 n_rd=996 n_write=538 bw_util=0.01869
n_activity=11358 dram_eff=0.2701
bk0: 68a 163577i bk1: 64a 163583i bk2: 64a 163584i bk3: 64a 163576i bk4: 48a 163833i bk5: 48a 163843i bk6: 64a 163993i bk7: 64a 164030i bk8: 64a 163797i bk9: 64a 163776i bk10: 64a 163357i bk11: 64a 163530i bk12: 64a 163549i bk13: 64a 163512i bk14: 64a 163791i bk15: 64a 163796i 
dram_util_bins: 0 0 0 0 0 0 0 0 0 0
dram_eff_bins: 0 0 0 0 0 0 0 0 0 0
mrqq: max=6 avg=0.0236006
Memory Partition 3: 
Cache L2_bank_006:
MSHR contents

Cache L2_bank_007:
MSHR contents

In Dram Latency Queue (total = 0): 
DRAM[3]: 16 bks, busW=4 BL=8 CL=12, tRRD=2 tCCD=6, tRCD=12 tRAS=28 tRP=12 tRC=40
n_cmd=164191 n_nop=162635 n_act=19 n_pre=3 n_req=868 n_rd=996 n_write=538 bw_util=0.01869
n_activity=11363 dram_eff=0.27
bk0: 68a 163547i bk1: 64a 163570i bk2: 64a 163608i bk3: 64a 163547i bk4: 48a 163829i bk5: 48a 163884i bk6: 64a 163993i bk7: 64a 164030i bk8: 64a 163798i bk9: 64a 163782i bk10: 64a 163519i bk11: 64a 163522i bk12: 64a 163585i bk13: 64a 163536i bk14: 64a 163794i bk15: 64a 163685i 
dram_util_bins: 0 0 0 0 0 0 0 0 0 0
dram_eff_bins: 0 0 0 0 0 0 0 0 0 0
mrqq: max=10 avg=0.0250745
Memory Partition 4: 
Cache L2_bank_008:
MSHR contents

Cache L2_bank_009:
MSHR contents

In Dram Latency Queue (total = 0): 
DRAM[4]: 16 bks, busW=4 BL=8 CL=12, tRRD=2 tCCD=6, tRCD=12 tRAS=28 tRP=12 tRC=40
n_cmd=164191 n_nop=162660 n_act=19 n_pre=3 n_req=855 n_rd=992 n_write=517 bw_util=0.01838
n_activity=11178 dram_eff=0.27
bk0: 68a 163574i bk1: 64a 163626i bk2: 64a 163635i bk3: 64a 163594i bk4: 44a 163836i bk5: 48a 163848i bk6: 64a 164016i bk7: 64a 163998i bk8: 64a 163838i bk9: 64a 163734i bk10: 64a 163524i bk11: 64a 163510i bk12: 64a 163576i bk13: 64a 163621i bk14: 64a 163747i bk15: 64a 163680i 
dram_util_bins: 0 0 0 0 0 0 0 0 0 0
dram_eff_bins: 0 0 0 0 0 0 0 0 0 0
mrqq: max=16 avg=0.031981
Memory Partition 5: 
Cache L2_bank_010:
MSHR contents

Cache L2_bank_011:
MSHR contents

In Dram Latency Queue (total = 0): 
DRAM[5]: 16 bks, busW=4 BL=8 CL=12, tRRD=2 tCCD=6, tRCD=12 tRAS=28 tRP=12 tRC=40
n_cmd=164191 n_nop=162615 n_act=19 n_pre=3 n_req=877 n_rd=992 n_write=562 bw_util=0.01893
n_activity=11417 dram_eff=0.2722
bk0: 68a 163539i bk1: 64a 163560i bk2: 64a 163589i bk3: 64a 163552i bk4: 44a 163862i bk5: 48a 163857i bk6: 64a 164019i bk7: 64a 164021i bk8: 64a 163816i bk9: 64a 163673i bk10: 64a 163431i bk11: 64a 163539i bk12: 64a 163539i bk13: 64a 163598i bk14: 64a 163746i bk15: 64a 163692i 
dram_util_bins: 0 0 0 0 0 0 0 0 0 0
dram_eff_bins: 0 0 0 0 0 0 0 0 0 0
mrqq: max=12 avg=0.0299529

========= L2 cache stats =========
L2_cache_bank[0]: Access = 4266, Miss = 251, Miss_rate = 0.059, Pending_hits = 115, Reservation_fails = 850
L2_cache_bank[1]: Access = 3878, Miss = 247, Miss_rate = 0.064, Pending_hits = 98, Reservation_fails = 821
L2_cache_bank[2]: Access = 4221, Miss = 252, Miss_rate = 0.060, Pending_hits = 98, Reservation_fails = 1135
L2_cache_bank[3]: Access = 3895, Miss = 246, Miss_rate = 0.063, Pending_hits = 90, Reservation_fails = 603
L2_cache_bank[4]: Access = 3781, Miss = 250, Miss_rate = 0.066, Pending_hits = 102, Reservation_fails = 976
L2_cache_bank[5]: Access = 3682, Miss = 248, Miss_rate = 0.067, Pending_hits = 91, Reservation_fails = 846
L2_cache_bank[6]: Access = 3729, Miss = 250, Miss_rate = 0.067, Pending_hits = 98, Reservation_fails = 579
L2_cache_bank[7]: Access = 3432, Miss = 248, Miss_rate = 0.072, Pending_hits = 95, Reservation_fails = 678
L2_cache_bank[8]: Access = 3906, Miss = 248, Miss_rate = 0.063, Pending_hits = 88, Reservation_fails = 666
L2_cache_bank[9]: Access = 3803, Miss = 248, Miss_rate = 0.065, Pending_hits = 96, Reservation_fails = 441
L2_cache_bank[10]: Access = 3925, Miss = 248, Miss_rate = 0.063, Pending_hits = 105, Reservation_fails = 828
L2_cache_bank[11]: Access = 3960, Miss = 248, Miss_rate = 0.063, Pending_hits = 99, Reservation_fails = 532
L2_total_cache_accesses = 46478
L2_total_cache_misses = 2984
L2_total_cache_miss_rate = 0.0642
L2_total_cache_pending_hits = 1175
L2_total_cache_reservation_fails = 8955
L2_total_cache_breakdown:
	L2_cache_stats_breakdown[GLOBAL_ACC_R][HIT] = 39988
	L2_cache_stats_breakdown[GLOBAL_ACC_R][HIT_RESERVED] = 910
	L2_cache_stats_breakdown[GLOBAL_ACC_R][MISS] = 985
	L2_cache_stats_breakdown[GLOBAL_ACC_R][RESERVATION_FAIL] = 8066
	L2_cache_stats_breakdown[CONST_ACC_R][HIT] = 63
	L2_cache_stats_breakdown[CONST_ACC_R][HIT_RESERVED] = 9
	L2_cache_stats_breakdown[CONST_ACC_R][MISS] = 3
	L2_cache_stats_breakdown[CONST_ACC_R][RESERVATION_FAIL] = 303
	L2_cache_stats_breakdown[GLOBAL_ACC_W][HIT] = 2095
	L2_cache_stats_breakdown[GLOBAL_ACC_W][HIT_RESERVED] = 233
	L2_cache_stats_breakdown[GLOBAL_ACC_W][MISS] = 1982
	L2_cache_stats_breakdown[GLOBAL_ACC_W][RESERVATION_FAIL] = 3
	L2_cache_stats_breakdown[INST_ACC_R][HIT] = 173
	L2_cache_stats_breakdown[INST_ACC_R][HIT_RESERVED] = 23
	L2_cache_stats_breakdown[INST_ACC_R][MISS] = 14
	L2_cache_stats_breakdown[INST_ACC_R][RESERVATION_FAIL] = 583
L2_cache_data_port_util = 0.111
L2_cache_fill_port_util = 0.008

icnt_total_pkts_mem_to_simt=215000
icnt_total_pkts_simt_to_mem=57713
LD_mem_lat_dist  0 0 0 0 0 0 0 0 0 0 0 0 0 0 0 0 0 0 0 0 0 0 0 0 0 0 0
ST_mem_lat_dist  0 0 0 0 0 0 0 0 0 0 0 0 0 0 0 0 0 0 0 0 0 0 0 0 0 0 0
----------------------------Interconnect-DETAILS--------------------------------
Class 0:
Packet latency average = 10.6455
	minimum = 6
	maximum = 86
Network latency average = 10.1627
	minimum = 6
	maximum = 63
Slowest packet = 40669
Flit latency average = 8.83263
	minimum = 6
	maximum = 59
Slowest flit = 124922
Fragmentation average = 0
	minimum = 0
	maximum = 0
Injected packet rate average = 0.0196966
	minimum = 0.0158364 (at node 7)
	maximum = 0.0236236 (at node 18)
Accepted packet rate average = 0.0196966
	minimum = 0.0158364 (at node 7)
	maximum = 0.0236236 (at node 18)
Injected flit rate average = 0.0577616
	minimum = 0.0201179 (at node 7)
	maximum = 0.109938 (at node 18)
Accepted flit rate average= 0.0577616
	minimum = 0.0262933 (at node 22)
	maximum = 0.0877953 (at node 13)
Injected packet length average = 2.93256
Accepted packet length average = 2.93256
Total in-flight flits = 0 (0 measured)
====== Overall Traffic Statistics ======
====== Traffic class 0 ======
Packet latency average = 16.4136 (2 samples)
	minimum = 6 (2 samples)
	maximum = 218.5 (2 samples)
Network latency average = 14.0236 (2 samples)
	minimum = 6 (2 samples)
	maximum = 201 (2 samples)
Flit latency average = 11.7487 (2 samples)
	minimum = 6 (2 samples)
	maximum = 199 (2 samples)
Fragmentation average = 0.0045312 (2 samples)
	minimum = 0 (2 samples)
	maximum = 76.5 (2 samples)
Injected packet rate average = 0.0394552 (2 samples)
	minimum = 0.0306862 (2 samples)
	maximum = 0.0530887 (2 samples)
Accepted packet rate average = 0.0394552 (2 samples)
	minimum = 0.0306862 (2 samples)
	maximum = 0.0530887 (2 samples)
Injected flit rate average = 0.115789 (2 samples)
	minimum = 0.0390165 (2 samples)
	maximum = 0.247661 (2 samples)
Accepted flit rate average = 0.115789 (2 samples)
	minimum = 0.0482141 (2 samples)
	maximum = 0.198895 (2 samples)
Injected packet size average = 2.93469 (2 samples)
Accepted packet size average = 2.93469 (2 samples)
Hops average = 1 (2 samples)
