

        *** GPGPU-Sim Simulator Version 3.2.2  [build 0] ***


GPGPU-Sim PTX: simulation mode 0 (can change with PTX_SIM_MODE_FUNC environment variable:
               1=functional simulation only, 0=detailed performance simulator)
GPGPU-Sim: Configuration options:

-network_mode                           1 # Interconnection network mode
-inter_config_file   config_fermi_islip.icnt # Interconnection network config file
-gpgpu_ptx_use_cuobjdump                    1 # Use cuobjdump to extract ptx and sass from binaries
-gpgpu_experimental_lib_support                    0 # Try to extract code from cuda libraries [Broken because of unknown cudaGetExportTable]
-gpgpu_ptx_convert_to_ptxplus                    0 # Convert SASS (native ISA) to ptxplus and run ptxplus
-gpgpu_ptx_force_max_capability                   20 # Force maximum compute capability
-gpgpu_ptx_inst_debug_to_file                    0 # Dump executed instructions' debug information to file
-gpgpu_ptx_inst_debug_file       inst_debug.txt # Executed instructions' debug output file
-gpgpu_ptx_inst_debug_thread_uid                    1 # Thread UID for executed instructions' debug output
-gpgpu_simd_model                       1 # 1 = post-dominator
-gpgpu_shader_core_pipeline              1536:32 # shader core pipeline config, i.e., {<nthread>:<warpsize>}
-gpgpu_tex_cache:l1  4:128:24,L:R:m:N:L,F:128:4,128:2 # per-shader L1 texture cache  (READ-ONLY) config  {<nsets>:<bsize>:<assoc>,<rep>:<wr>:<alloc>:<wr_alloc>,<mshr>:<N>:<merge>,<mq>:<rf>}
-gpgpu_const_cache:l1 64:64:2,L:R:f:N:L,A:2:32,4 # per-shader L1 constant memory cache  (READ-ONLY) config  {<nsets>:<bsize>:<assoc>,<rep>:<wr>:<alloc>:<wr_alloc>,<mshr>:<N>:<merge>,<mq>} 
-gpgpu_cache:il1     4:128:4,L:R:f:N:L,A:2:32,4 # shader L1 instruction cache config  {<nsets>:<bsize>:<assoc>,<rep>:<wr>:<alloc>:<wr_alloc>,<mshr>:<N>:<merge>,<mq>} 
-gpgpu_cache:dl1     32:128:4,L:L:m:N:H,A:32:8,8:2,0,1:0:1:1:0:1,1:4:8:16:32:64,/sciclone/data10/hwang07/GPU_RESEARCH/swl/swl_outputs/RESULTS/twolevel601/ # per-shader L1 data cache config  {<nsets>:<bsize>:<assoc>,<rep>:<wr>:<alloc>:<wr_alloc>,<mshr>:<N>:<merge>,<mq> | none}
-gpgpu_cache:dl1PrefL1                 none # per-shader L1 data cache config  {<nsets>:<bsize>:<assoc>,<rep>:<wr>:<alloc>:<wr_alloc>,<mshr>:<N>:<merge>,<mq> | none}
-gpgpu_cache:dl1PreShared                 none # per-shader L1 data cache config  {<nsets>:<bsize>:<assoc>,<rep>:<wr>:<alloc>:<wr_alloc>,<mshr>:<N>:<merge>,<mq> | none}
-gmem_skip_L1D                          0 # global memory access skip L1D cache (implements -Xptxas -dlcm=cg, default=no skip)
-gpgpu_perfect_mem                      0 # enable perfect memory mode (no cache miss)
-n_regfile_gating_group                    4 # group of lanes that should be read/written together)
-gpgpu_clock_gated_reg_file                    0 # enable clock gated reg file for power calculations
-gpgpu_clock_gated_lanes                    0 # enable clock gated lanes for power calculations
-gpgpu_shader_registers                32768 # Number of registers per shader core. Limits number of concurrent CTAs. (default 8192)
-gpgpu_shader_cta                       8 # Maximum number of concurrent CTAs in shader (default 8)
-gpgpu_num_cta_barriers                   16 # Maximum number of named barriers per CTA (default 16)
-gpgpu_n_clusters                      15 # number of processing clusters
-gpgpu_n_cores_per_cluster                    1 # number of simd cores per cluster
-gpgpu_n_cluster_ejection_buffer_size                    8 # number of packets in ejection buffer
-gpgpu_n_ldst_response_buffer_size                    2 # number of response packets in ld/st unit ejection buffer
-gpgpu_shmem_size                   16384 # Size of shared memory per shader core (default 16kB)
-gpgpu_shmem_size                   49152 # Size of shared memory per shader core (default 16kB)
-gpgpu_shmem_size_PrefL1                16384 # Size of shared memory per shader core (default 16kB)
-gpgpu_shmem_size_PrefShared                16384 # Size of shared memory per shader core (default 16kB)
-gpgpu_shmem_num_banks                   32 # Number of banks in the shared memory in each shader core (default 16)
-gpgpu_shmem_limited_broadcast                    0 # Limit shared memory to do one broadcast per cycle (default on)
-gpgpu_shmem_warp_parts                    1 # Number of portions a warp is divided into for shared memory bank conflict check 
-gpgpu_warpdistro_shader                   -1 # Specify which shader core to collect the warp size distribution from
-gpgpu_warp_issue_shader                    0 # Specify which shader core to collect the warp issue distribution from
-gpgpu_local_mem_map                    1 # Mapping from local memory space address to simulated GPU physical address space (default = enabled)
-gpgpu_num_reg_banks                   16 # Number of register banks (default = 8)
-gpgpu_reg_bank_use_warp_id                    0 # Use warp ID in mapping registers to banks (default = off)
-gpgpu_operand_collector_num_units_sp                    6 # number of collector units (default = 4)
-gpgpu_operand_collector_num_units_sfu                    8 # number of collector units (default = 4)
-gpgpu_operand_collector_num_units_mem                    2 # number of collector units (default = 2)
-gpgpu_operand_collector_num_units_gen                    0 # number of collector units (default = 0)
-gpgpu_operand_collector_num_in_ports_sp                    2 # number of collector unit in ports (default = 1)
-gpgpu_operand_collector_num_in_ports_sfu                    1 # number of collector unit in ports (default = 1)
-gpgpu_operand_collector_num_in_ports_mem                    1 # number of collector unit in ports (default = 1)
-gpgpu_operand_collector_num_in_ports_gen                    0 # number of collector unit in ports (default = 0)
-gpgpu_operand_collector_num_out_ports_sp                    2 # number of collector unit in ports (default = 1)
-gpgpu_operand_collector_num_out_ports_sfu                    1 # number of collector unit in ports (default = 1)
-gpgpu_operand_collector_num_out_ports_mem                    1 # number of collector unit in ports (default = 1)
-gpgpu_operand_collector_num_out_ports_gen                    0 # number of collector unit in ports (default = 0)
-gpgpu_coalesce_arch                   13 # Coalescing arch (default = 13, anything else is off for now)
-gpgpu_num_sched_per_core                    2 # Number of warp schedulers per core
-gpgpu_max_insn_issue_per_warp                    1 # Max number of instructions that can be issued per warp in one cycle by scheduler
-gpgpu_simt_core_sim_order                    1 # Select the simulation order of cores in a cluster (0=Fix, 1=Round-Robin)
-gpgpu_pipeline_widths        2,1,1,2,1,1,2 # Pipeline widths ID_OC_SP,ID_OC_SFU,ID_OC_MEM,OC_EX_SP,OC_EX_SFU,OC_EX_MEM,EX_WB
-gpgpu_num_sp_units                     2 # Number of SP units (default=1)
-gpgpu_num_sfu_units                    1 # Number of SF units (default=1)
-gpgpu_num_mem_units                    1 # Number if ldst units (default=1) WARNING: not hooked up to anything
-gpgpu_scheduler     two_level_active:6:0:1 # Scheduler configuration: < lrr | gto | two_level_active > If two_level_active:<num_active_warps>:<inner_prioritization>:<outer_prioritization>For complete list of prioritization values see shader.h enum scheduler_prioritization_typeDefault: gto
-gpgpu_dram_scheduler                    1 # 0 = fifo, 1 = FR-FCFS (defaul)
-gpgpu_dram_partition_queues              8:8:8:8 # i2$:$2d:d2$:$2i
-l2_ideal                               0 # Use a ideal L2 cache that always hit
-gpgpu_cache:dl2     64:128:8,L:B:m:W:L,A:32:4,4:0,32 # unified banked L2 data cache config  {<nsets>:<bsize>:<assoc>,<rep>:<wr>:<alloc>:<wr_alloc>,<mshr>:<N>:<merge>,<mq>}
-gpgpu_cache:dl2_texture_only                    0 # L2 cache used for texture only
-gpgpu_n_mem                            6 # number of memory modules (e.g. memory controllers) in gpu
-gpgpu_n_sub_partition_per_mchannel                    2 # number of memory subpartition in each memory module
-gpgpu_n_mem_per_ctrlr                    2 # number of memory chips per memory controller
-gpgpu_memlatency_stat                   14 # track and display latency statistics 0x2 enables MC, 0x4 enables queue logs
-gpgpu_frfcfs_dram_sched_queue_size                   16 # 0 = unlimited (default); # entries per chip
-gpgpu_dram_return_queue_size                  116 # 0 = unlimited (default); # entries per chip
-gpgpu_dram_buswidth                    4 # default = 4 bytes (8 bytes per cycle at DDR)
-gpgpu_dram_burst_length                    8 # Burst length of each DRAM request (default = 4 data bus cycle)
-dram_data_command_freq_ratio                    4 # Frequency ratio between DRAM data bus and command bus (default = 2 times, i.e. DDR)
-gpgpu_dram_timing_opt nbk=16:CCD=2:RRD=6:RCD=12:RAS=28:RP=12:RC=40: CL=12:WL=4:CDLR=5:WR=12:nbkgrp=4:CCDL=3:RTPL=2 # DRAM timing parameters = {nbk:tCCD:tRRD:tRCD:tRAS:tRP:tRC:CL:WL:tCDLR:tWR:nbkgrp:tCCDL:tRTPL}
-rop_latency                          120 # ROP queue latency (default 85)
-dram_latency                         100 # DRAM latency (default 30)
-gpgpu_mem_addr_mapping dramid@8;00000000.00000000.00000000.00000000.0000RRRR.RRRRRRRR.BBBCCCCB.CCSSSSSS # mapping memory address to dram model {dramid@<start bit>;<memory address map>}
-gpgpu_mem_addr_test                    0 # run sweep test to check address mapping for aliased address
-gpgpu_mem_address_mask                    1 # 0 = old addressing mask, 1 = new addressing mask, 2 = new add. mask + flipped bank sel and chip sel bits
-gpuwattch_xml_file  gpuwattch_gtx480.xml # GPUWattch XML file
-power_simulation_enabled                    0 # Turn on power simulator (1=On, 0=Off)
-power_per_cycle_dump                    0 # Dump detailed power output each cycle
-power_trace_enabled                    0 # produce a file for the power trace (1=On, 0=Off)
-power_trace_zlevel                     6 # Compression level of the power trace output log (0=no comp, 9=highest)
-steady_power_levels_enabled                    0 # produce a file for the steady power levels (1=On, 0=Off)
-steady_state_definition                  8:4 # allowed deviation:number of samples
-gpgpu_max_cycle                        0 # terminates gpu simulation early (0 = no limit)
-gpgpu_max_insn                         0 # terminates gpu simulation early (0 = no limit)
-gpgpu_max_cta                          0 # terminates gpu simulation early (0 = no limit)
-gpgpu_runtime_stat                   500 # display runtime statistics such as dram utilization {<freq>:<flag>}
-liveness_message_freq                    1 # Minimum number of seconds between simulation liveness messages (0 = always print)
-gpgpu_flush_l1_cache                    0 # Flush L1 cache at the end of each kernel call
-gpgpu_flush_l2_cache                    0 # Flush L2 cache at the end of each kernel call
-gpgpu_deadlock_detect                    1 # Stop the simulation at deadlock (1=on (default), 0=off)
-gpgpu_ptx_instruction_classification                    0 # if enabled will classify ptx instruction types per kernel (Max 255 kernels now)
-gpgpu_ptx_sim_mode                     0 # Select between Performance (default) or Functional simulation (1)
-gpgpu_clock_domains 700.0:700.0:700.0:924.0 # Clock Domain Frequencies in MhZ {<Core Clock>:<ICNT Clock>:<L2 Clock>:<DRAM Clock>}
-gpgpu_max_concurrent_kernel                    8 # maximum kernels that can run concurrently on GPU
-gpgpu_cflog_interval                    0 # Interval between each snapshot in control flow logger
-visualizer_enabled                     0 # Turn on visualizer output (1=On, 0=Off)
-visualizer_outputfile                 NULL # Specifies the output log file for visualizer
-visualizer_zlevel                      6 # Compression level of the visualizer output log (0=no comp, 9=highest)
-trace_enabled                          0 # Turn on traces
-trace_components                    none # comma seperated list of traces to enable. Complete list found in trace_streams.tup. Default none
-trace_sampling_core                    0 # The core which is printed using CORE_DPRINTF. Default 0
-trace_sampling_memory_partition                   -1 # The memory partition which is printed using MEMPART_DPRINTF. Default -1 (i.e. all)
-enable_ptx_file_line_stats                    1 # Turn on PTX source line statistic profiling. (1 = On)
-ptx_line_stats_filename gpgpu_inst_stats.txt # Output file for PTX source line statistics.
-save_embedded_ptx                      0 # saves ptx files embedded in binary as <n>.ptx
-keep                                   0 # keep intermediate files created by GPGPU-Sim when interfacing with external programs
-gpgpu_ptx_save_converted_ptxplus                    0 # Saved converted ptxplus to a file
-ptx_opcode_latency_int         4,13,4,5,145 # Opcode latencies for integers <ADD,MAX,MUL,MAD,DIV>Default 1,1,19,25,145
-ptx_opcode_latency_fp          4,13,4,5,39 # Opcode latencies for single precision floating points <ADD,MAX,MUL,MAD,DIV>Default 1,1,1,1,30
-ptx_opcode_latency_dp         8,19,8,8,330 # Opcode latencies for double precision floating points <ADD,MAX,MUL,MAD,DIV>Default 8,8,8,8,335
-ptx_opcode_initiation_int            1,2,2,1,8 # Opcode initiation intervals for integers <ADD,MAX,MUL,MAD,DIV>Default 1,1,4,4,32
-ptx_opcode_initiation_fp            1,2,1,1,4 # Opcode initiation intervals for single precision floating points <ADD,MAX,MUL,MAD,DIV>Default 1,1,1,1,5
-ptx_opcode_initiation_dp         8,16,8,8,130 # Opcode initiation intervals for double precision floating points <ADD,MAX,MUL,MAD,DIV>Default 8,8,8,8,130
DRAM Timing Options:
nbk                                    16 # number of banks
CCD                                     2 # column to column delay
RRD                                     6 # minimal delay between activation of rows in different banks
RCD                                    12 # row to column delay
RAS                                    28 # time needed to activate row
RP                                     12 # time needed to precharge (deactivate) row
RC                                     40 # row cycle time
CDLR                                    5 # switching from write to read (changes tWTR)
WR                                     12 # last data-in to row precharge
CL                                     12 # CAS latency
WL                                      4 # Write latency
nbkgrp                                  4 # number of bank groups
CCDL                                    3 # column to column delay between accesses to different bank groups
RTPL                                    2 # read to precharge delay between accesses to different bank groups
Total number of memory sub partition = 12
addr_dec_mask[CHIP]  = 0000000000000000 	high:64 low:0
addr_dec_mask[BK]    = 000000000000e100 	high:16 low:8
addr_dec_mask[ROW]   = 000000000fff0000 	high:28 low:16
addr_dec_mask[COL]   = 0000000000001eff 	high:13 low:0
addr_dec_mask[BURST] = 000000000000003f 	high:6 low:0
sub_partition_id_mask = 0000000000000100
GPGPU-Sim uArch: clock freqs: 700000000.000000:700000000.000000:700000000.000000:924000000.000000
GPGPU-Sim uArch: clock periods: 0.00000000142857142857:0.00000000142857142857:0.00000000142857142857:0.00000000108225108225
*** Initializing Memory Statistics ***
GPGPU-Sim uArch: interconnect node map (shaderID+MemID to icntID)
GPGPU-Sim uArch: Memory nodes ID start from index: 15
GPGPU-Sim uArch:    0   1   2   3   4
GPGPU-Sim uArch:    5   6   7   8   9
GPGPU-Sim uArch:   10  11  12  13  14
GPGPU-Sim uArch:   15  16  17  18  19
GPGPU-Sim uArch:   20  21  22  23  24
GPGPU-Sim uArch:   25  26
GPGPU-Sim uArch: interconnect node reverse map (icntID to shaderID+MemID)
GPGPU-Sim uArch: Memory nodes start from ID: 15
GPGPU-Sim uArch:    0   1   2   3   4
GPGPU-Sim uArch:    5   6   7   8   9
GPGPU-Sim uArch:   10  11  12  13  14
GPGPU-Sim uArch:   15  16  17  18  19
GPGPU-Sim uArch:   20  21  22  23  24
GPGPU-Sim uArch:   25  26
7fda3539671ef22924a0c4c414b8a557  /sciclone/data10/hwang07/adwait/applications/benchmarks/shoc/bin/Serial/CUDA/MD
GPGPU-Sim uArch: performance model initialization complete.
GPGPU-Sim PTX: __cudaRegisterFatBinary, fat_cubin_handle = 1, filename=MD.cu
self exe links to: /sciclone/data10/hwang07/adwait/applications/benchmarks/shoc/bin/Serial/CUDA/MD
Running md5sum using "md5sum /sciclone/data10/hwang07/adwait/applications/benchmarks/shoc/bin/Serial/CUDA/MD "
Parsing file _cuobjdump_complete_output_QfDvvg
######### cuobjdump parser ########
## Adding new section ELF
Adding arch: sm_12
Adding identifier: MD.cu
## Adding new section ELF
Adding arch: sm_20
Adding identifier: MD.cu
## Adding new section PTX
Adding ptx filename: _cuobjdump_1.ptx
Adding arch: sm_20
Adding identifier: MD.cu
## Adding new section ELF
Adding arch: sm_13
Adding identifier: MD.cu
Done parsing!!!
GPGPU-Sim PTX: __cudaRegisterFunction _Z16compute_lj_forceId7double37double4Lb1E12texReader_dpEvPT0_PKT1_iPKiT_SA_SA_i : hostFun 0x0x406e30, fat_cubin_handle = 1
GPGPU-Sim PTX: allocating global region for "posTexture" from 0x100 to 0x104 (global memory space)
GPGPU-Sim PTX: instruction assembly for function '_Z16compute_lj_forceIf6float36float4Lb1E12texReader_spEvPT0_PKT1_iPKiT_SA_SA_i'...   done.
GPGPU-Sim PTX: finding reconvergence points for '_Z16compute_lj_forceIf6float36float4Lb1E12texReader_spEvPT0_PKT1_iPKiT_SA_SA_i'...
GPGPU-Sim PTX: Finding dominators for '_Z16compute_lj_forceIf6float36float4Lb1E12texReader_spEvPT0_PKT1_iPKiT_SA_SA_i'...
GPGPU-Sim PTX: Finding immediate dominators for '_Z16compute_lj_forceIf6float36float4Lb1E12texReader_spEvPT0_PKT1_iPKiT_SA_SA_i'...
GPGPU-Sim PTX: Finding postdominators for '_Z16compute_lj_forceIf6float36float4Lb1E12texReader_spEvPT0_PKT1_iPKiT_SA_SA_i'...
GPGPU-Sim PTX: Finding immediate postdominators for '_Z16compute_lj_forceIf6float36float4Lb1E12texReader_spEvPT0_PKT1_iPKiT_SA_SA_i'...
GPGPU-Sim PTX: pre-decoding instructions for '_Z16compute_lj_forceIf6float36float4Lb1E12texReader_spEvPT0_PKT1_iPKiT_SA_SA_i'...
GPGPU-Sim PTX: reconvergence points for _Z16compute_lj_forceIf6float36float4Lb1E12texReader_spEvPT0_PKT1_iPKiT_SA_SA_i...
GPGPU-Sim PTX:  1 (potential) branch divergence @  PC=0x068 (_1.ptx:82) @%p1 bra $Lt_0_4354;
GPGPU-Sim PTX:    immediate post dominator      @  PC=0x218 (_1.ptx:146) ld.param.u64 %rd10, [__cudaparm__Z16compute_lj_forceIf6float36float4Lb1E12texReader_spEvPT0_PKT1_iPKiT_SA_SA_i_force3];
GPGPU-Sim PTX:  2 (potential) branch divergence @  PC=0x170 (_1.ptx:118) @!%p2 bra $Lt_0_3586;
GPGPU-Sim PTX:    immediate post dominator      @  PC=0x1d8 (_1.ptx:135) add.s32 %r10, %r10, 1;
GPGPU-Sim PTX:  3 (potential) branch divergence @  PC=0x1f0 (_1.ptx:138) @%p3 bra $Lt_0_3330;
GPGPU-Sim PTX:    immediate post dominator      @  PC=0x1f8 (_1.ptx:139) bra.uni $Lt_0_2818;
GPGPU-Sim PTX:  4 (potential) branch divergence @  PC=0x1f8 (_1.ptx:139) bra.uni $Lt_0_2818;
GPGPU-Sim PTX:    immediate post dominator      @  PC=0x218 (_1.ptx:146) ld.param.u64 %rd10, [__cudaparm__Z16compute_lj_forceIf6float36float4Lb1E12texReader_spEvPT0_PKT1_iPKiT_SA_SA_i_force3];
GPGPU-Sim PTX: ... end of reconvergence points for _Z16compute_lj_forceIf6float36float4Lb1E12texReader_spEvPT0_PKT1_iPKiT_SA_SA_i
GPGPU-Sim PTX: ... done pre-decoding instructions for '_Z16compute_lj_forceIf6float36float4Lb1E12texReader_spEvPT0_PKT1_iPKiT_SA_SA_i'.
GPGPU-Sim PTX: allocating global region for "posTexture_dp" from 0x104 to 0x108 (global memory space)
GPGPU-Sim PTX: instruction assembly for function '_Z16compute_lj_forceId7double37double4Lb1E12texReader_dpEvPT0_PKT1_iPKiT_SA_SA_i'...   done.
GPGPU-Sim PTX: finding reconvergence points for '_Z16compute_lj_forceId7double37double4Lb1E12texReader_dpEvPT0_PKT1_iPKiT_SA_SA_i'...
GPGPU-Sim PTX: Finding dominators for '_Z16compute_lj_forceId7double37double4Lb1E12texReader_dpEvPT0_PKT1_iPKiT_SA_SA_i'...
GPGPU-Sim PTX: Finding immediate dominators for '_Z16compute_lj_forceId7double37double4Lb1E12texReader_dpEvPT0_PKT1_iPKiT_SA_SA_i'...
GPGPU-Sim PTX: Finding postdominators for '_Z16compute_lj_forceId7double37double4Lb1E12texReader_dpEvPT0_PKT1_iPKiT_SA_SA_i'...
GPGPU-Sim PTX: Finding immediate postdominators for '_Z16compute_lj_forceId7double37double4Lb1E12texReader_dpEvPT0_PKT1_iPKiT_SA_SA_i'...
GPGPU-Sim PTX: pre-decoding instructions for '_Z16compute_lj_forceId7double37double4Lb1E12texReader_dpEvPT0_PKT1_iPKiT_SA_SA_i'...
GPGPU-Sim PTX: reconvergence points for _Z16compute_lj_forceId7double37double4Lb1E12texReader_dpEvPT0_PKT1_iPKiT_SA_SA_i...
GPGPU-Sim PTX:  1 (potential) branch divergence @  PC=0x2c0 (_1.ptx:189) @%p1 bra $Lt_1_4354;
GPGPU-Sim PTX:    immediate post dominator      @  PC=0x4f0 (_1.ptx:270) ld.param.u64 %rd10, [__cudaparm__Z16compute_lj_forceId7double37double4Lb1E12texReader_dpEvPT0_PKT1_iPKiT_SA_SA_i_force3];
GPGPU-Sim PTX:  2 (potential) branch divergence @  PC=0x448 (_1.ptx:242) @!%p2 bra $Lt_1_3586;
GPGPU-Sim PTX:    immediate post dominator      @  PC=0x4b0 (_1.ptx:259) add.s32 %r10, %r10, 1;
GPGPU-Sim PTX:  3 (potential) branch divergence @  PC=0x4c8 (_1.ptx:262) @%p3 bra $Lt_1_3330;
GPGPU-Sim PTX:    immediate post dominator      @  PC=0x4d0 (_1.ptx:263) bra.uni $Lt_1_2818;
GPGPU-Sim PTX:  4 (potential) branch divergence @  PC=0x4d0 (_1.ptx:263) bra.uni $Lt_1_2818;
GPGPU-Sim PTX:    immediate post dominator      @  PC=0x4f0 (_1.ptx:270) ld.param.u64 %rd10, [__cudaparm__Z16compute_lj_forceId7double37double4Lb1E12texReader_dpEvPT0_PKT1_iPKiT_SA_SA_i_force3];
GPGPU-Sim PTX: ... end of reconvergence points for _Z16compute_lj_forceId7double37double4Lb1E12texReader_dpEvPT0_PKT1_iPKiT_SA_SA_i
GPGPU-Sim PTX: ... done pre-decoding instructions for '_Z16compute_lj_forceId7double37double4Lb1E12texReader_dpEvPT0_PKT1_iPKiT_SA_SA_i'.
GPGPU-Sim PTX: finished parsing EMBEDDED .ptx file _1.ptx
Adding _cuobjdump_1.ptx with cubin handle 1
GPGPU-Sim PTX: extracting embedded .ptx to temporary file "_ptx_uZnIw8"
Running: cat _ptx_uZnIw8 | sed 's/.version 1.5/.version 1.4/' | sed 's/, texmode_independent//' | sed 's/\(\.extern \.const\[1\] .b8 \w\+\)\[\]/\1\[1\]/' | sed 's/const\[.\]/const\[0\]/g' > _ptx2_EbMGA3
GPGPU-Sim PTX: generating ptxinfo using "$CUDA_INSTALL_PATH/bin/ptxas --gpu-name=sm_20 -v _ptx2_EbMGA3 --output-file  /dev/null 2> _ptx_uZnIw8info"
GPGPU-Sim PTX: Kernel '_Z16compute_lj_forceId7double37double4Lb1E12texReader_dpEvPT0_PKT1_iPKiT_SA_SA_i' : regs=37, lmem=0, smem=0, cmem=108
GPGPU-Sim PTX: Kernel '_Z16compute_lj_forceIf6float36float4Lb1E12texReader_spEvPT0_PKT1_iPKiT_SA_SA_i' : regs=26, lmem=0, smem=0, cmem=84
GPGPU-Sim PTX: removing ptxinfo using "rm -f _ptx_uZnIw8 _ptx2_EbMGA3 _ptx_uZnIw8info"
GPGPU-Sim PTX: loading globals with explicit initializers... 
GPGPU-Sim PTX: finished loading globals (0 bytes total).
GPGPU-Sim PTX: loading constants with explicit initializers...  done.
GPGPU-Sim PTX: __cudaRegisterFunction _Z16compute_lj_forceIf6float36float4Lb1E12texReader_spEvPT0_PKT1_iPKiT_SA_SA_i : hostFun 0x0x406e20, fat_cubin_handle = 1
GPGPU-Sim PTX: in __cudaRegisterTexture:
GPGPU-Sim PTX:   int dim = 1
GPGPU-Sim PTX:   int norm = 0
GPGPU-Sim PTX:   int ext = 0
GPGPU-Sim PTX:   Execution warning: Not finished implementing "void __cudaRegisterTexture(void**, const textureReference*, const void**, const char*, int, int, int)"
GPGPU-Sim PTX: in __cudaRegisterTexture:
GPGPU-Sim PTX:   int dim = 1
GPGPU-Sim PTX:   int norm = 0
GPGPU-Sim PTX:   int ext = 0
GPGPU-Sim PTX:   Execution warning: Not finished implementing "void __cudaRegisterTexture(void**, const textureReference*, const void**, const char*, int, int, int)"
Chose device: name='GPGPU-Sim_vGPGPU-Sim Simulator Version 3.2.2 ' index=0
Running single precision test
Initializing test problem (this can take several minutes for large problems)
GPGPU-Sim PTX: in cudaBindTexture: sizeof(struct textureReference) = 104
GPGPU-Sim PTX:   size = 196608
GPGPU-Sim PTX:   texref = 0x61ee60, array = 0x19f2f80
GPGPU-Sim PTX:   devPtr32 = 80024000
GPGPU-Sim PTX:   Name corresponding to textureReference: posTexture
GPGPU-Sim PTX:   ChannelFormatDesc: x=32, y=32, z=32, w=32
GPGPU-Sim PTX:   Texture Normalized? = 0
GPGPU-Sim PTX:   texel size = 16
GPGPU-Sim PTX:   texture cache linesize = 128
GPGPU-Sim PTX:   Tx = 4; Ty = 2, Tx_numbits = 2, Ty_numbits = 1
GPGPU-Sim PTX:   Texel size = 16 bytes; texel_size_numbits = 4
GPGPU-Sim PTX:   Binding texture to array starting at devPtr32 = 0x80024000
GPGPU-Sim PTX:   Texel size = 16 bytes
GPGPU-Sim PTX: devPtr = 0xffffffff80024000
GPGPU-Sim PTX: in cudaBindTexture: sizeof(struct textureReference) = 104
GPGPU-Sim PTX:   size = 393216
GPGPU-Sim PTX:   texref = 0x61eee0, array = 0x19f8b80
GPGPU-Sim PTX:   devPtr32 = 80024000
GPGPU-Sim PTX:   Name corresponding to textureReference: posTexture_dp
GPGPU-Sim PTX:   ChannelFormatDesc: x=32, y=32, z=32, w=32
GPGPU-Sim PTX:   Texture Normalized? = 0
GPGPU-Sim PTX:   texel size = 16
GPGPU-Sim PTX:   texture cache linesize = 128
GPGPU-Sim PTX:   Tx = 4; Ty = 2, Tx_numbits = 2, Ty_numbits = 1
GPGPU-Sim PTX:   Texel size = 16 bytes; texel_size_numbits = 4
GPGPU-Sim PTX:   Binding texture to array starting at devPtr32 = 0x80024000
GPGPU-Sim PTX:   Texel size = 16 bytes
GPGPU-Sim PTX: devPtr = 0xffffffff80024000
  10% done
  20% done
  30% done
  40% done
  50% done
  60% done
  70% done
  80% done
  90% done
  100% done
Finished.
1570334 of 1572864 pairs within cutoff distance = 99.8391 %
event update
event update
GPGPU-Sim API: cudaEventSynchronize ** waiting for event
GPGPU-Sim API: cudaEventSynchronize ** event detected

GPGPU-Sim PTX: cudaLaunch for 0x0x406e20 (mode=performance simulation) on stream 0
GPGPU-Sim PTX: pushing kernel '_Z16compute_lj_forceIf6float36float4Lb1E12texReader_spEvPT0_PKT1_iPKiT_SA_SA_i' to stream 0, gridDim= (48,1,1) blockDim = (256,1,1) 
kernel '_Z16compute_lj_forceIf6float36float4Lb1E12texReader_spEvPT0_PKT1_iPKiT_SA_SA_i' transfer to GPU hardware scheduler
GPGPU-Sim uArch: Shader 1 bind to kernel 1 '_Z16compute_lj_forceIf6float36float4Lb1E12texReader_spEvPT0_PKT1_iPKiT_SA_SA_i'
GPGPU-Sim uArch: CTA/core = 4, limited by: regs
GPGPU-Sim uArch: core:  1, cta: 0 initialized @(1,0)
GPGPU-Sim uArch: Shader 2 bind to kernel 1 '_Z16compute_lj_forceIf6float36float4Lb1E12texReader_spEvPT0_PKT1_iPKiT_SA_SA_i'
GPGPU-Sim uArch: core:  2, cta: 0 initialized @(1,0)
GPGPU-Sim uArch: Shader 3 bind to kernel 1 '_Z16compute_lj_forceIf6float36float4Lb1E12texReader_spEvPT0_PKT1_iPKiT_SA_SA_i'
GPGPU-Sim uArch: core:  3, cta: 0 initialized @(1,0)
GPGPU-Sim uArch: Shader 4 bind to kernel 1 '_Z16compute_lj_forceIf6float36float4Lb1E12texReader_spEvPT0_PKT1_iPKiT_SA_SA_i'
GPGPU-Sim uArch: core:  4, cta: 0 initialized @(1,0)
GPGPU-Sim uArch: Shader 5 bind to kernel 1 '_Z16compute_lj_forceIf6float36float4Lb1E12texReader_spEvPT0_PKT1_iPKiT_SA_SA_i'
GPGPU-Sim uArch: core:  5, cta: 0 initialized @(1,0)
GPGPU-Sim uArch: Shader 6 bind to kernel 1 '_Z16compute_lj_forceIf6float36float4Lb1E12texReader_spEvPT0_PKT1_iPKiT_SA_SA_i'
GPGPU-Sim uArch: core:  6, cta: 0 initialized @(1,0)
GPGPU-Sim uArch: Shader 7 bind to kernel 1 '_Z16compute_lj_forceIf6float36float4Lb1E12texReader_spEvPT0_PKT1_iPKiT_SA_SA_i'
GPGPU-Sim uArch: core:  7, cta: 0 initialized @(1,0)
GPGPU-Sim uArch: Shader 8 bind to kernel 1 '_Z16compute_lj_forceIf6float36float4Lb1E12texReader_spEvPT0_PKT1_iPKiT_SA_SA_i'
GPGPU-Sim uArch: core:  8, cta: 0 initialized @(1,0)
GPGPU-Sim uArch: Shader 9 bind to kernel 1 '_Z16compute_lj_forceIf6float36float4Lb1E12texReader_spEvPT0_PKT1_iPKiT_SA_SA_i'
GPGPU-Sim uArch: core:  9, cta: 0 initialized @(1,0)
GPGPU-Sim uArch: Shader 10 bind to kernel 1 '_Z16compute_lj_forceIf6float36float4Lb1E12texReader_spEvPT0_PKT1_iPKiT_SA_SA_i'
GPGPU-Sim uArch: core: 10, cta: 0 initialized @(1,0)
GPGPU-Sim uArch: Shader 11 bind to kernel 1 '_Z16compute_lj_forceIf6float36float4Lb1E12texReader_spEvPT0_PKT1_iPKiT_SA_SA_i'
GPGPU-Sim uArch: core: 11, cta: 0 initialized @(1,0)
GPGPU-Sim uArch: Shader 12 bind to kernel 1 '_Z16compute_lj_forceIf6float36float4Lb1E12texReader_spEvPT0_PKT1_iPKiT_SA_SA_i'
GPGPU-Sim uArch: core: 12, cta: 0 initialized @(1,0)
GPGPU-Sim uArch: Shader 13 bind to kernel 1 '_Z16compute_lj_forceIf6float36float4Lb1E12texReader_spEvPT0_PKT1_iPKiT_SA_SA_i'
GPGPU-Sim uArch: core: 13, cta: 0 initialized @(1,0)
GPGPU-Sim uArch: Shader 14 bind to kernel 1 '_Z16compute_lj_forceIf6float36float4Lb1E12texReader_spEvPT0_PKT1_iPKiT_SA_SA_i'
GPGPU-Sim uArch: core: 14, cta: 0 initialized @(1,0)
GPGPU-Sim uArch: Shader 0 bind to kernel 1 '_Z16compute_lj_forceIf6float36float4Lb1E12texReader_spEvPT0_PKT1_iPKiT_SA_SA_i'
GPGPU-Sim uArch: core:  0, cta: 0 initialized @(1,0)
GPGPU-Sim uArch: core:  1, cta: 1 initialized @(2,0)
GPGPU-Sim uArch: core:  2, cta: 1 initialized @(2,0)
GPGPU-Sim uArch: core:  3, cta: 1 initialized @(2,0)
GPGPU-Sim uArch: core:  4, cta: 1 initialized @(2,0)
GPGPU-Sim uArch: core:  5, cta: 1 initialized @(2,0)
GPGPU-Sim uArch: core:  6, cta: 1 initialized @(2,0)
GPGPU-Sim uArch: core:  7, cta: 1 initialized @(2,0)
GPGPU-Sim uArch: core:  8, cta: 1 initialized @(2,0)
GPGPU-Sim uArch: core:  9, cta: 1 initialized @(2,0)
GPGPU-Sim uArch: core: 10, cta: 1 initialized @(2,0)
GPGPU-Sim uArch: core: 11, cta: 1 initialized @(2,0)
GPGPU-Sim uArch: core: 12, cta: 1 initialized @(2,0)
GPGPU-Sim uArch: core: 13, cta: 1 initialized @(2,0)
GPGPU-Sim uArch: core: 14, cta: 1 initialized @(2,0)
GPGPU-Sim uArch: core:  0, cta: 1 initialized @(2,0)
GPGPU-Sim uArch: core:  1, cta: 2 initialized @(3,0)
GPGPU-Sim uArch: core:  2, cta: 2 initialized @(3,0)
GPGPU-Sim uArch: core:  3, cta: 2 initialized @(3,0)
GPGPU-Sim uArch: core:  4, cta: 2 initialized @(3,0)
GPGPU-Sim uArch: core:  5, cta: 2 initialized @(3,0)
GPGPU-Sim uArch: core:  6, cta: 2 initialized @(3,0)
GPGPU-Sim uArch: core:  7, cta: 2 initialized @(3,0)
GPGPU-Sim uArch: core:  8, cta: 2 initialized @(3,0)
GPGPU-Sim uArch: core:  9, cta: 2 initialized @(3,0)
GPGPU-Sim uArch: core: 10, cta: 2 initialized @(3,0)
GPGPU-Sim uArch: core: 11, cta: 2 initialized @(3,0)
GPGPU-Sim uArch: core: 12, cta: 2 initialized @(3,0)
GPGPU-Sim uArch: core: 13, cta: 2 initialized @(3,0)
GPGPU-Sim uArch: core: 14, cta: 2 initialized @(3,0)
GPGPU-Sim uArch: core:  0, cta: 2 initialized @(3,0)
GPGPU-Sim uArch: core:  1, cta: 3 initialized @(4,0)
GPGPU-Sim uArch: core:  2, cta: 3 initialized @(4,0)
GPGPU-Sim uArch: core:  3, cta: 3 initialized @(4,0)
GPGPU-Sim uArch: cycles simulated: 500  inst.: 85984 (ipc=172.0) sim_rate=5374 (inst/sec) elapsed = 0:0:00:16 / Tue Mar 22 13:18:49 2016
GPGPU-Sim PTX: 100000 instructions simulated : ctaid=(1,0,0) tid=(63,0,0)
GPGPU-Sim uArch: cycles simulated: 1000  inst.: 116896 (ipc=116.9) sim_rate=6494 (inst/sec) elapsed = 0:0:00:18 / Tue Mar 22 13:18:51 2016
GPGPU-Sim PTX: 200000 instructions simulated : ctaid=(33,0,0) tid=(31,0,0)
GPGPU-Sim PTX: 300000 instructions simulated : ctaid=(4,0,0) tid=(63,0,0)
GPGPU-Sim uArch: cycles simulated: 2500  inst.: 325440 (ipc=130.2) sim_rate=17128 (inst/sec) elapsed = 0:0:00:19 / Tue Mar 22 13:18:52 2016
GPGPU-Sim uArch: cycles simulated: 3500  inst.: 370784 (ipc=105.9) sim_rate=18539 (inst/sec) elapsed = 0:0:00:20 / Tue Mar 22 13:18:53 2016
GPGPU-Sim uArch: cycles simulated: 4500  inst.: 383904 (ipc=85.3) sim_rate=18281 (inst/sec) elapsed = 0:0:00:21 / Tue Mar 22 13:18:54 2016
GPGPU-Sim PTX: 400000 instructions simulated : ctaid=(25,0,0) tid=(255,0,0)
GPGPU-Sim uArch: cycles simulated: 6000  inst.: 409952 (ipc=68.3) sim_rate=18634 (inst/sec) elapsed = 0:0:00:22 / Tue Mar 22 13:18:55 2016
GPGPU-Sim uArch: cycles simulated: 7000  inst.: 420864 (ipc=60.1) sim_rate=18298 (inst/sec) elapsed = 0:0:00:23 / Tue Mar 22 13:18:56 2016
GPGPU-Sim uArch: cycles simulated: 8500  inst.: 461440 (ipc=54.3) sim_rate=19226 (inst/sec) elapsed = 0:0:00:24 / Tue Mar 22 13:18:57 2016
GPGPU-Sim PTX: 500000 instructions simulated : ctaid=(43,0,0) tid=(63,0,0)
GPGPU-Sim uArch: cycles simulated: 10000  inst.: 481376 (ipc=48.1) sim_rate=19255 (inst/sec) elapsed = 0:0:00:25 / Tue Mar 22 13:18:58 2016
GPGPU-Sim PTX: 600000 instructions simulated : ctaid=(40,0,0) tid=(159,0,0)
GPGPU-Sim uArch: cycles simulated: 11500  inst.: 608000 (ipc=52.9) sim_rate=23384 (inst/sec) elapsed = 0:0:00:26 / Tue Mar 22 13:18:59 2016
GPGPU-Sim PTX: 700000 instructions simulated : ctaid=(28,0,0) tid=(159,0,0)
GPGPU-Sim uArch: cycles simulated: 12500  inst.: 724832 (ipc=58.0) sim_rate=26845 (inst/sec) elapsed = 0:0:00:27 / Tue Mar 22 13:19:00 2016
GPGPU-Sim PTX: 800000 instructions simulated : ctaid=(16,0,0) tid=(223,0,0)
GPGPU-Sim uArch: cycles simulated: 14000  inst.: 793184 (ipc=56.7) sim_rate=28328 (inst/sec) elapsed = 0:0:00:28 / Tue Mar 22 13:19:01 2016
GPGPU-Sim uArch: cycles simulated: 15000  inst.: 830688 (ipc=55.4) sim_rate=28644 (inst/sec) elapsed = 0:0:00:29 / Tue Mar 22 13:19:02 2016
GPGPU-Sim uArch: cycles simulated: 16000  inst.: 849952 (ipc=53.1) sim_rate=28331 (inst/sec) elapsed = 0:0:00:30 / Tue Mar 22 13:19:03 2016
GPGPU-Sim PTX: 900000 instructions simulated : ctaid=(1,0,0) tid=(31,0,0)
GPGPU-Sim uArch: cycles simulated: 17000  inst.: 875520 (ipc=51.5) sim_rate=28242 (inst/sec) elapsed = 0:0:00:31 / Tue Mar 22 13:19:04 2016
GPGPU-Sim uArch: cycles simulated: 18000  inst.: 934304 (ipc=51.9) sim_rate=29197 (inst/sec) elapsed = 0:0:00:32 / Tue Mar 22 13:19:05 2016
GPGPU-Sim PTX: 1000000 instructions simulated : ctaid=(24,0,0) tid=(159,0,0)
GPGPU-Sim uArch: cycles simulated: 19000  inst.: 984672 (ipc=51.8) sim_rate=29838 (inst/sec) elapsed = 0:0:00:33 / Tue Mar 22 13:19:06 2016
GPGPU-Sim uArch: cycles simulated: 20500  inst.: 1042304 (ipc=50.8) sim_rate=30656 (inst/sec) elapsed = 0:0:00:34 / Tue Mar 22 13:19:07 2016
GPGPU-Sim PTX: 1100000 instructions simulated : ctaid=(43,0,0) tid=(191,0,0)
GPGPU-Sim uArch: cycles simulated: 21500  inst.: 1093088 (ipc=50.8) sim_rate=31231 (inst/sec) elapsed = 0:0:00:35 / Tue Mar 22 13:19:08 2016
GPGPU-Sim uArch: cycles simulated: 22500  inst.: 1137024 (ipc=50.5) sim_rate=31584 (inst/sec) elapsed = 0:0:00:36 / Tue Mar 22 13:19:09 2016
GPGPU-Sim PTX: 1200000 instructions simulated : ctaid=(29,0,0) tid=(63,0,0)
GPGPU-Sim uArch: cycles simulated: 23500  inst.: 1197088 (ipc=50.9) sim_rate=32353 (inst/sec) elapsed = 0:0:00:37 / Tue Mar 22 13:19:10 2016
GPGPU-Sim PTX: 1300000 instructions simulated : ctaid=(46,0,0) tid=(95,0,0)
GPGPU-Sim uArch: cycles simulated: 25000  inst.: 1278880 (ipc=51.2) sim_rate=33654 (inst/sec) elapsed = 0:0:00:38 / Tue Mar 22 13:19:11 2016
GPGPU-Sim uArch: cycles simulated: 26000  inst.: 1318624 (ipc=50.7) sim_rate=33810 (inst/sec) elapsed = 0:0:00:39 / Tue Mar 22 13:19:12 2016
GPGPU-Sim uArch: cycles simulated: 27000  inst.: 1348416 (ipc=49.9) sim_rate=33710 (inst/sec) elapsed = 0:0:00:40 / Tue Mar 22 13:19:13 2016
GPGPU-Sim PTX: 1400000 instructions simulated : ctaid=(15,0,0) tid=(159,0,0)
GPGPU-Sim uArch: cycles simulated: 28000  inst.: 1376768 (ipc=49.2) sim_rate=33579 (inst/sec) elapsed = 0:0:00:41 / Tue Mar 22 13:19:14 2016
GPGPU-Sim uArch: cycles simulated: 29000  inst.: 1411520 (ipc=48.7) sim_rate=33607 (inst/sec) elapsed = 0:0:00:42 / Tue Mar 22 13:19:15 2016
GPGPU-Sim uArch: cycles simulated: 30000  inst.: 1445504 (ipc=48.2) sim_rate=33616 (inst/sec) elapsed = 0:0:00:43 / Tue Mar 22 13:19:16 2016
GPGPU-Sim PTX: 1500000 instructions simulated : ctaid=(22,0,0) tid=(159,0,0)
GPGPU-Sim uArch: cycles simulated: 31500  inst.: 1520128 (ipc=48.3) sim_rate=34548 (inst/sec) elapsed = 0:0:00:44 / Tue Mar 22 13:19:17 2016
GPGPU-Sim PTX: 1600000 instructions simulated : ctaid=(39,0,0) tid=(127,0,0)
GPGPU-Sim uArch: cycles simulated: 32500  inst.: 1582016 (ipc=48.7) sim_rate=35155 (inst/sec) elapsed = 0:0:00:45 / Tue Mar 22 13:19:18 2016
GPGPU-Sim PTX: 1700000 instructions simulated : ctaid=(6,0,0) tid=(95,0,0)
GPGPU-Sim uArch: cycles simulated: 33500  inst.: 1660768 (ipc=49.6) sim_rate=36103 (inst/sec) elapsed = 0:0:00:46 / Tue Mar 22 13:19:19 2016
GPGPU-Sim uArch: cycles simulated: 35000  inst.: 1701184 (ipc=48.6) sim_rate=36195 (inst/sec) elapsed = 0:0:00:47 / Tue Mar 22 13:19:20 2016
GPGPU-Sim PTX: 1800000 instructions simulated : ctaid=(7,0,0) tid=(191,0,0)
GPGPU-Sim uArch: cycles simulated: 36000  inst.: 1749472 (ipc=48.6) sim_rate=36447 (inst/sec) elapsed = 0:0:00:48 / Tue Mar 22 13:19:21 2016
GPGPU-Sim uArch: cycles simulated: 37000  inst.: 1798976 (ipc=48.6) sim_rate=36713 (inst/sec) elapsed = 0:0:00:49 / Tue Mar 22 13:19:22 2016
GPGPU-Sim uArch: cycles simulated: 38000  inst.: 1824000 (ipc=48.0) sim_rate=36480 (inst/sec) elapsed = 0:0:00:50 / Tue Mar 22 13:19:23 2016
GPGPU-Sim PTX: 1900000 instructions simulated : ctaid=(33,0,0) tid=(31,0,0)
GPGPU-Sim uArch: cycles simulated: 39000  inst.: 1854048 (ipc=47.5) sim_rate=36353 (inst/sec) elapsed = 0:0:00:51 / Tue Mar 22 13:19:24 2016
GPGPU-Sim uArch: cycles simulated: 40500  inst.: 1904704 (ipc=47.0) sim_rate=36628 (inst/sec) elapsed = 0:0:00:52 / Tue Mar 22 13:19:25 2016
GPGPU-Sim PTX: 2000000 instructions simulated : ctaid=(42,0,0) tid=(223,0,0)
GPGPU-Sim uArch: cycles simulated: 41500  inst.: 1949152 (ipc=47.0) sim_rate=36776 (inst/sec) elapsed = 0:0:00:53 / Tue Mar 22 13:19:26 2016
GPGPU-Sim uArch: cycles simulated: 42500  inst.: 1986752 (ipc=46.7) sim_rate=36791 (inst/sec) elapsed = 0:0:00:54 / Tue Mar 22 13:19:27 2016
GPGPU-Sim PTX: 2100000 instructions simulated : ctaid=(33,0,0) tid=(255,0,0)
GPGPU-Sim uArch: cycles simulated: 43500  inst.: 2074464 (ipc=47.7) sim_rate=37717 (inst/sec) elapsed = 0:0:00:55 / Tue Mar 22 13:19:28 2016
GPGPU-Sim PTX: 2200000 instructions simulated : ctaid=(12,0,0) tid=(95,0,0)
GPGPU-Sim uArch: cycles simulated: 45000  inst.: 2138784 (ipc=47.5) sim_rate=38192 (inst/sec) elapsed = 0:0:00:56 / Tue Mar 22 13:19:29 2016
GPGPU-Sim uArch: cycles simulated: 46000  inst.: 2164800 (ipc=47.1) sim_rate=37978 (inst/sec) elapsed = 0:0:00:57 / Tue Mar 22 13:19:30 2016
GPGPU-Sim uArch: cycles simulated: 47000  inst.: 2199488 (ipc=46.8) sim_rate=37922 (inst/sec) elapsed = 0:0:00:58 / Tue Mar 22 13:19:31 2016
GPGPU-Sim PTX: 2300000 instructions simulated : ctaid=(41,0,0) tid=(223,0,0)
GPGPU-Sim uArch: cycles simulated: 48000  inst.: 2232160 (ipc=46.5) sim_rate=37833 (inst/sec) elapsed = 0:0:00:59 / Tue Mar 22 13:19:32 2016
GPGPU-Sim uArch: cycles simulated: 49500  inst.: 2298048 (ipc=46.4) sim_rate=38300 (inst/sec) elapsed = 0:0:01:00 / Tue Mar 22 13:19:33 2016
GPGPU-Sim PTX: 2400000 instructions simulated : ctaid=(26,0,0) tid=(159,0,0)
GPGPU-Sim uArch: cycles simulated: 50500  inst.: 2336672 (ipc=46.3) sim_rate=38306 (inst/sec) elapsed = 0:0:01:01 / Tue Mar 22 13:19:34 2016
GPGPU-Sim uArch: cycles simulated: 51500  inst.: 2402656 (ipc=46.7) sim_rate=38752 (inst/sec) elapsed = 0:0:01:02 / Tue Mar 22 13:19:35 2016
GPGPU-Sim PTX: 2500000 instructions simulated : ctaid=(0,0,0) tid=(223,0,0)
GPGPU-Sim uArch: cycles simulated: 52500  inst.: 2447520 (ipc=46.6) sim_rate=38849 (inst/sec) elapsed = 0:0:01:03 / Tue Mar 22 13:19:36 2016
GPGPU-Sim uArch: cycles simulated: 54000  inst.: 2517056 (ipc=46.6) sim_rate=39329 (inst/sec) elapsed = 0:0:01:04 / Tue Mar 22 13:19:37 2016
GPGPU-Sim PTX: 2600000 instructions simulated : ctaid=(11,0,0) tid=(31,0,0)
GPGPU-Sim uArch: cycles simulated: 55000  inst.: 2581440 (ipc=46.9) sim_rate=39714 (inst/sec) elapsed = 0:0:01:05 / Tue Mar 22 13:19:38 2016
GPGPU-Sim uArch: cycles simulated: 56000  inst.: 2616704 (ipc=46.7) sim_rate=39647 (inst/sec) elapsed = 0:0:01:06 / Tue Mar 22 13:19:39 2016
GPGPU-Sim PTX: 2700000 instructions simulated : ctaid=(24,0,0) tid=(63,0,0)
GPGPU-Sim uArch: cycles simulated: 57000  inst.: 2650368 (ipc=46.5) sim_rate=39557 (inst/sec) elapsed = 0:0:01:07 / Tue Mar 22 13:19:40 2016
GPGPU-Sim uArch: cycles simulated: 58000  inst.: 2684896 (ipc=46.3) sim_rate=39483 (inst/sec) elapsed = 0:0:01:08 / Tue Mar 22 13:19:41 2016
GPGPU-Sim PTX: 2800000 instructions simulated : ctaid=(25,0,0) tid=(95,0,0)
GPGPU-Sim uArch: cycles simulated: 59500  inst.: 2748864 (ipc=46.2) sim_rate=39838 (inst/sec) elapsed = 0:0:01:09 / Tue Mar 22 13:19:42 2016
GPGPU-Sim uArch: cycles simulated: 60500  inst.: 2805056 (ipc=46.4) sim_rate=40072 (inst/sec) elapsed = 0:0:01:10 / Tue Mar 22 13:19:43 2016
GPGPU-Sim PTX: 2900000 instructions simulated : ctaid=(24,0,0) tid=(159,0,0)
GPGPU-Sim uArch: cycles simulated: 61500  inst.: 2850400 (ipc=46.3) sim_rate=40146 (inst/sec) elapsed = 0:0:01:11 / Tue Mar 22 13:19:44 2016
GPGPU-Sim uArch: cycles simulated: 62500  inst.: 2876864 (ipc=46.0) sim_rate=39956 (inst/sec) elapsed = 0:0:01:12 / Tue Mar 22 13:19:45 2016
GPGPU-Sim PTX: 3000000 instructions simulated : ctaid=(43,0,0) tid=(191,0,0)
GPGPU-Sim uArch: cycles simulated: 63500  inst.: 2912448 (ipc=45.9) sim_rate=39896 (inst/sec) elapsed = 0:0:01:13 / Tue Mar 22 13:19:46 2016
GPGPU-Sim uArch: cycles simulated: 65000  inst.: 2969024 (ipc=45.7) sim_rate=40121 (inst/sec) elapsed = 0:0:01:14 / Tue Mar 22 13:19:47 2016
GPGPU-Sim PTX: 3100000 instructions simulated : ctaid=(25,0,0) tid=(95,0,0)
GPGPU-Sim uArch: cycles simulated: 66000  inst.: 3019328 (ipc=45.7) sim_rate=40257 (inst/sec) elapsed = 0:0:01:15 / Tue Mar 22 13:19:48 2016
GPGPU-Sim uArch: cycles simulated: 67000  inst.: 3081664 (ipc=46.0) sim_rate=40548 (inst/sec) elapsed = 0:0:01:16 / Tue Mar 22 13:19:49 2016
GPGPU-Sim PTX: 3200000 instructions simulated : ctaid=(2,0,0) tid=(95,0,0)
GPGPU-Sim uArch: cycles simulated: 68000  inst.: 3116096 (ipc=45.8) sim_rate=40468 (inst/sec) elapsed = 0:0:01:17 / Tue Mar 22 13:19:50 2016
GPGPU-Sim PTX: 3300000 instructions simulated : ctaid=(17,0,0) tid=(31,0,0)
GPGPU-Sim uArch: cycles simulated: 69500  inst.: 3215584 (ipc=46.3) sim_rate=41225 (inst/sec) elapsed = 0:0:01:18 / Tue Mar 22 13:19:51 2016
GPGPU-Sim uArch: cycles simulated: 70500  inst.: 3258208 (ipc=46.2) sim_rate=41243 (inst/sec) elapsed = 0:0:01:19 / Tue Mar 22 13:19:52 2016
GPGPU-Sim uArch: cycles simulated: 71500  inst.: 3288672 (ipc=46.0) sim_rate=41108 (inst/sec) elapsed = 0:0:01:20 / Tue Mar 22 13:19:53 2016
GPGPU-Sim PTX: 3400000 instructions simulated : ctaid=(17,0,0) tid=(95,0,0)
GPGPU-Sim uArch: cycles simulated: 72500  inst.: 3319456 (ipc=45.8) sim_rate=40980 (inst/sec) elapsed = 0:0:01:21 / Tue Mar 22 13:19:54 2016
GPGPU-Sim uArch: cycles simulated: 74000  inst.: 3368704 (ipc=45.5) sim_rate=41081 (inst/sec) elapsed = 0:0:01:22 / Tue Mar 22 13:19:55 2016
GPGPU-Sim PTX: 3500000 instructions simulated : ctaid=(40,0,0) tid=(255,0,0)
GPGPU-Sim uArch: cycles simulated: 75000  inst.: 3430880 (ipc=45.7) sim_rate=41335 (inst/sec) elapsed = 0:0:01:23 / Tue Mar 22 13:19:56 2016
GPGPU-Sim uArch: cycles simulated: 76000  inst.: 3481504 (ipc=45.8) sim_rate=41446 (inst/sec) elapsed = 0:0:01:24 / Tue Mar 22 13:19:57 2016
GPGPU-Sim PTX: 3600000 instructions simulated : ctaid=(42,0,0) tid=(191,0,0)
GPGPU-Sim uArch: cycles simulated: 77000  inst.: 3527136 (ipc=45.8) sim_rate=41495 (inst/sec) elapsed = 0:0:01:25 / Tue Mar 22 13:19:58 2016
GPGPU-Sim uArch: cycles simulated: 78000  inst.: 3564032 (ipc=45.7) sim_rate=41442 (inst/sec) elapsed = 0:0:01:26 / Tue Mar 22 13:19:59 2016
GPGPU-Sim PTX: 3700000 instructions simulated : ctaid=(21,0,0) tid=(63,0,0)
GPGPU-Sim uArch: cycles simulated: 79500  inst.: 3614848 (ipc=45.5) sim_rate=41549 (inst/sec) elapsed = 0:0:01:27 / Tue Mar 22 13:20:00 2016
GPGPU-Sim uArch: cycles simulated: 80500  inst.: 3647168 (ipc=45.3) sim_rate=41445 (inst/sec) elapsed = 0:0:01:28 / Tue Mar 22 13:20:01 2016
GPGPU-Sim uArch: cycles simulated: 81500  inst.: 3686144 (ipc=45.2) sim_rate=41417 (inst/sec) elapsed = 0:0:01:29 / Tue Mar 22 13:20:02 2016
GPGPU-Sim PTX: 3800000 instructions simulated : ctaid=(31,0,0) tid=(223,0,0)
GPGPU-Sim uArch: cycles simulated: 83000  inst.: 3756544 (ipc=45.3) sim_rate=41739 (inst/sec) elapsed = 0:0:01:30 / Tue Mar 22 13:20:03 2016
GPGPU-Sim PTX: 3900000 instructions simulated : ctaid=(35,0,0) tid=(31,0,0)
GPGPU-Sim uArch: cycles simulated: 84000  inst.: 3813376 (ipc=45.4) sim_rate=41905 (inst/sec) elapsed = 0:0:01:31 / Tue Mar 22 13:20:04 2016
GPGPU-Sim uArch: cycles simulated: 85000  inst.: 3858368 (ipc=45.4) sim_rate=41938 (inst/sec) elapsed = 0:0:01:32 / Tue Mar 22 13:20:05 2016
GPGPU-Sim PTX: 4000000 instructions simulated : ctaid=(43,0,0) tid=(191,0,0)
GPGPU-Sim uArch: cycles simulated: 86000  inst.: 3906624 (ipc=45.4) sim_rate=42006 (inst/sec) elapsed = 0:0:01:33 / Tue Mar 22 13:20:06 2016
GPGPU-Sim uArch: cycles simulated: 87000  inst.: 3948256 (ipc=45.4) sim_rate=42002 (inst/sec) elapsed = 0:0:01:34 / Tue Mar 22 13:20:07 2016
GPGPU-Sim PTX: 4100000 instructions simulated : ctaid=(34,0,0) tid=(223,0,0)
GPGPU-Sim uArch: cycles simulated: 88000  inst.: 4005248 (ipc=45.5) sim_rate=42160 (inst/sec) elapsed = 0:0:01:35 / Tue Mar 22 13:20:08 2016
GPGPU-Sim uArch: cycles simulated: 89500  inst.: 4070816 (ipc=45.5) sim_rate=42404 (inst/sec) elapsed = 0:0:01:36 / Tue Mar 22 13:20:09 2016
GPGPU-Sim PTX: 4200000 instructions simulated : ctaid=(1,0,0) tid=(95,0,0)
GPGPU-Sim uArch: cycles simulated: 90500  inst.: 4114816 (ipc=45.5) sim_rate=42420 (inst/sec) elapsed = 0:0:01:37 / Tue Mar 22 13:20:10 2016
GPGPU-Sim uArch: cycles simulated: 91500  inst.: 4141920 (ipc=45.3) sim_rate=42264 (inst/sec) elapsed = 0:0:01:38 / Tue Mar 22 13:20:11 2016
GPGPU-Sim PTX: 4300000 instructions simulated : ctaid=(40,0,0) tid=(127,0,0)
GPGPU-Sim uArch: cycles simulated: 92500  inst.: 4184352 (ipc=45.2) sim_rate=42266 (inst/sec) elapsed = 0:0:01:39 / Tue Mar 22 13:20:12 2016
GPGPU-Sim uArch: cycles simulated: 93500  inst.: 4228128 (ipc=45.2) sim_rate=42281 (inst/sec) elapsed = 0:0:01:40 / Tue Mar 22 13:20:13 2016
GPGPU-Sim PTX: 4400000 instructions simulated : ctaid=(10,0,0) tid=(159,0,0)
GPGPU-Sim uArch: cycles simulated: 94500  inst.: 4273216 (ipc=45.2) sim_rate=42309 (inst/sec) elapsed = 0:0:01:41 / Tue Mar 22 13:20:14 2016
GPGPU-Sim uArch: cycles simulated: 96000  inst.: 4325312 (ipc=45.1) sim_rate=42405 (inst/sec) elapsed = 0:0:01:42 / Tue Mar 22 13:20:15 2016
GPGPU-Sim uArch: cycles simulated: 97000  inst.: 4362048 (ipc=45.0) sim_rate=42349 (inst/sec) elapsed = 0:0:01:43 / Tue Mar 22 13:20:16 2016
GPGPU-Sim PTX: 4500000 instructions simulated : ctaid=(11,0,0) tid=(63,0,0)
GPGPU-Sim uArch: cycles simulated: 98000  inst.: 4429952 (ipc=45.2) sim_rate=42595 (inst/sec) elapsed = 0:0:01:44 / Tue Mar 22 13:20:17 2016
GPGPU-Sim PTX: 4600000 instructions simulated : ctaid=(4,0,0) tid=(63,0,0)
GPGPU-Sim uArch: cycles simulated: 99000  inst.: 4486432 (ipc=45.3) sim_rate=42727 (inst/sec) elapsed = 0:0:01:45 / Tue Mar 22 13:20:18 2016
GPGPU-Sim uArch: cycles simulated: 100500  inst.: 4547168 (ipc=45.2) sim_rate=42897 (inst/sec) elapsed = 0:0:01:46 / Tue Mar 22 13:20:19 2016
GPGPU-Sim PTX: 4700000 instructions simulated : ctaid=(43,0,0) tid=(31,0,0)
GPGPU-Sim uArch: cycles simulated: 101500  inst.: 4588608 (ipc=45.2) sim_rate=42884 (inst/sec) elapsed = 0:0:01:47 / Tue Mar 22 13:20:20 2016
GPGPU-Sim uArch: cycles simulated: 102500  inst.: 4619936 (ipc=45.1) sim_rate=42777 (inst/sec) elapsed = 0:0:01:48 / Tue Mar 22 13:20:21 2016
GPGPU-Sim PTX: 4800000 instructions simulated : ctaid=(40,0,0) tid=(95,0,0)
GPGPU-Sim uArch: cycles simulated: 103500  inst.: 4666176 (ipc=45.1) sim_rate=42808 (inst/sec) elapsed = 0:0:01:49 / Tue Mar 22 13:20:22 2016
GPGPU-Sim uArch: cycles simulated: 104500  inst.: 4710624 (ipc=45.1) sim_rate=42823 (inst/sec) elapsed = 0:0:01:50 / Tue Mar 22 13:20:23 2016
GPGPU-Sim PTX: 4900000 instructions simulated : ctaid=(11,0,0) tid=(159,0,0)
GPGPU-Sim uArch: cycles simulated: 105500  inst.: 4756512 (ipc=45.1) sim_rate=42851 (inst/sec) elapsed = 0:0:01:51 / Tue Mar 22 13:20:24 2016
GPGPU-Sim uArch: cycles simulated: 107000  inst.: 4827200 (ipc=45.1) sim_rate=43100 (inst/sec) elapsed = 0:0:01:52 / Tue Mar 22 13:20:25 2016
GPGPU-Sim PTX: 5000000 instructions simulated : ctaid=(3,0,0) tid=(223,0,0)
GPGPU-Sim uArch: cycles simulated: 108000  inst.: 4883040 (ipc=45.2) sim_rate=43212 (inst/sec) elapsed = 0:0:01:53 / Tue Mar 22 13:20:26 2016
GPGPU-Sim uArch: cycles simulated: 109000  inst.: 4923424 (ipc=45.2) sim_rate=43187 (inst/sec) elapsed = 0:0:01:54 / Tue Mar 22 13:20:27 2016
GPGPU-Sim uArch: cycles simulated: 110000  inst.: 4951712 (ipc=45.0) sim_rate=43058 (inst/sec) elapsed = 0:0:01:55 / Tue Mar 22 13:20:28 2016
GPGPU-Sim PTX: 5100000 instructions simulated : ctaid=(14,0,0) tid=(31,0,0)
GPGPU-Sim uArch: cycles simulated: 111000  inst.: 4981632 (ipc=44.9) sim_rate=42945 (inst/sec) elapsed = 0:0:01:56 / Tue Mar 22 13:20:29 2016
GPGPU-Sim uArch: cycles simulated: 112000  inst.: 5028000 (ipc=44.9) sim_rate=42974 (inst/sec) elapsed = 0:0:01:57 / Tue Mar 22 13:20:30 2016
GPGPU-Sim PTX: 5200000 instructions simulated : ctaid=(11,0,0) tid=(223,0,0)
GPGPU-Sim uArch: cycles simulated: 113500  inst.: 5087104 (ipc=44.8) sim_rate=43111 (inst/sec) elapsed = 0:0:01:58 / Tue Mar 22 13:20:31 2016
GPGPU-Sim uArch: cycles simulated: 114500  inst.: 5127808 (ipc=44.8) sim_rate=43090 (inst/sec) elapsed = 0:0:01:59 / Tue Mar 22 13:20:32 2016
GPGPU-Sim PTX: 5300000 instructions simulated : ctaid=(41,0,0) tid=(127,0,0)
GPGPU-Sim uArch: cycles simulated: 115500  inst.: 5163360 (ipc=44.7) sim_rate=43028 (inst/sec) elapsed = 0:0:02:00 / Tue Mar 22 13:20:33 2016
GPGPU-Sim uArch: cycles simulated: 116500  inst.: 5214240 (ipc=44.8) sim_rate=43092 (inst/sec) elapsed = 0:0:02:01 / Tue Mar 22 13:20:34 2016
GPGPU-Sim PTX: 5400000 instructions simulated : ctaid=(35,0,0) tid=(255,0,0)
GPGPU-Sim uArch: cycles simulated: 118000  inst.: 5279552 (ipc=44.7) sim_rate=43275 (inst/sec) elapsed = 0:0:02:02 / Tue Mar 22 13:20:35 2016
GPGPU-Sim PTX: 5500000 instructions simulated : ctaid=(11,0,0) tid=(127,0,0)
GPGPU-Sim uArch: cycles simulated: 119000  inst.: 5344992 (ipc=44.9) sim_rate=43455 (inst/sec) elapsed = 0:0:02:03 / Tue Mar 22 13:20:36 2016
GPGPU-Sim uArch: cycles simulated: 120000  inst.: 5373376 (ipc=44.8) sim_rate=43333 (inst/sec) elapsed = 0:0:02:04 / Tue Mar 22 13:20:37 2016
GPGPU-Sim uArch: cycles simulated: 121000  inst.: 5401504 (ipc=44.6) sim_rate=43212 (inst/sec) elapsed = 0:0:02:05 / Tue Mar 22 13:20:38 2016
GPGPU-Sim PTX: 5600000 instructions simulated : ctaid=(30,0,0) tid=(159,0,0)
GPGPU-Sim uArch: cycles simulated: 122000  inst.: 5454304 (ipc=44.7) sim_rate=43288 (inst/sec) elapsed = 0:0:02:06 / Tue Mar 22 13:20:39 2016
GPGPU-Sim uArch: cycles simulated: 123500  inst.: 5517888 (ipc=44.7) sim_rate=43447 (inst/sec) elapsed = 0:0:02:07 / Tue Mar 22 13:20:40 2016
GPGPU-Sim PTX: 5700000 instructions simulated : ctaid=(24,0,0) tid=(159,0,0)
GPGPU-Sim uArch: cycles simulated: 124500  inst.: 5563808 (ipc=44.7) sim_rate=43467 (inst/sec) elapsed = 0:0:02:08 / Tue Mar 22 13:20:41 2016
GPGPU-Sim uArch: cycles simulated: 125500  inst.: 5602944 (ipc=44.6) sim_rate=43433 (inst/sec) elapsed = 0:0:02:09 / Tue Mar 22 13:20:42 2016
GPGPU-Sim PTX: 5800000 instructions simulated : ctaid=(19,0,0) tid=(223,0,0)
GPGPU-Sim uArch: cycles simulated: 126500  inst.: 5645152 (ipc=44.6) sim_rate=43424 (inst/sec) elapsed = 0:0:02:10 / Tue Mar 22 13:20:43 2016
GPGPU-Sim uArch: cycles simulated: 127500  inst.: 5681408 (ipc=44.6) sim_rate=43369 (inst/sec) elapsed = 0:0:02:11 / Tue Mar 22 13:20:44 2016
GPGPU-Sim PTX: 5900000 instructions simulated : ctaid=(27,0,0) tid=(127,0,0)
GPGPU-Sim uArch: cycles simulated: 128500  inst.: 5739840 (ipc=44.7) sim_rate=43483 (inst/sec) elapsed = 0:0:02:12 / Tue Mar 22 13:20:45 2016
GPGPU-Sim uArch: cycles simulated: 130000  inst.: 5803840 (ipc=44.6) sim_rate=43637 (inst/sec) elapsed = 0:0:02:13 / Tue Mar 22 13:20:46 2016
GPGPU-Sim PTX: 6000000 instructions simulated : ctaid=(28,0,0) tid=(255,0,0)
GPGPU-Sim uArch: cycles simulated: 131000  inst.: 5840672 (ipc=44.6) sim_rate=43587 (inst/sec) elapsed = 0:0:02:14 / Tue Mar 22 13:20:47 2016
GPGPU-Sim uArch: cycles simulated: 132000  inst.: 5888800 (ipc=44.6) sim_rate=43620 (inst/sec) elapsed = 0:0:02:15 / Tue Mar 22 13:20:48 2016
GPGPU-Sim PTX: 6100000 instructions simulated : ctaid=(16,0,0) tid=(255,0,0)
GPGPU-Sim uArch: cycles simulated: 133000  inst.: 5930848 (ipc=44.6) sim_rate=43609 (inst/sec) elapsed = 0:0:02:16 / Tue Mar 22 13:20:49 2016
GPGPU-Sim uArch: cycles simulated: 134500  inst.: 6006272 (ipc=44.7) sim_rate=43841 (inst/sec) elapsed = 0:0:02:17 / Tue Mar 22 13:20:50 2016
GPGPU-Sim PTX: 6200000 instructions simulated : ctaid=(17,0,0) tid=(159,0,0)
GPGPU-Sim uArch: cycles simulated: 135500  inst.: 6041568 (ipc=44.6) sim_rate=43779 (inst/sec) elapsed = 0:0:02:18 / Tue Mar 22 13:20:51 2016
GPGPU-Sim uArch: cycles simulated: 136500  inst.: 6082400 (ipc=44.6) sim_rate=43758 (inst/sec) elapsed = 0:0:02:19 / Tue Mar 22 13:20:52 2016
GPGPU-Sim PTX: 6300000 instructions simulated : ctaid=(2,0,0) tid=(159,0,0)
GPGPU-Sim uArch: cycles simulated: 137500  inst.: 6120160 (ipc=44.5) sim_rate=43715 (inst/sec) elapsed = 0:0:02:20 / Tue Mar 22 13:20:53 2016
GPGPU-Sim uArch: cycles simulated: 138500  inst.: 6181472 (ipc=44.6) sim_rate=43840 (inst/sec) elapsed = 0:0:02:21 / Tue Mar 22 13:20:54 2016
GPGPU-Sim PTX: 6400000 instructions simulated : ctaid=(22,0,0) tid=(95,0,0)
GPGPU-Sim uArch: cycles simulated: 139500  inst.: 6216320 (ipc=44.6) sim_rate=43776 (inst/sec) elapsed = 0:0:02:22 / Tue Mar 22 13:20:55 2016
GPGPU-Sim uArch: cycles simulated: 141000  inst.: 6270048 (ipc=44.5) sim_rate=43846 (inst/sec) elapsed = 0:0:02:23 / Tue Mar 22 13:20:56 2016
GPGPU-Sim uArch: cycles simulated: 142000  inst.: 6301152 (ipc=44.4) sim_rate=43758 (inst/sec) elapsed = 0:0:02:24 / Tue Mar 22 13:20:57 2016
GPGPU-Sim PTX: 6500000 instructions simulated : ctaid=(11,0,0) tid=(127,0,0)
GPGPU-Sim uArch: cycles simulated: 143000  inst.: 6360960 (ipc=44.5) sim_rate=43868 (inst/sec) elapsed = 0:0:02:25 / Tue Mar 22 13:20:58 2016
GPGPU-Sim PTX: 6600000 instructions simulated : ctaid=(22,0,0) tid=(31,0,0)
GPGPU-Sim uArch: cycles simulated: 144500  inst.: 6436192 (ipc=44.5) sim_rate=44083 (inst/sec) elapsed = 0:0:02:26 / Tue Mar 22 13:20:59 2016
GPGPU-Sim uArch: cycles simulated: 145500  inst.: 6470080 (ipc=44.5) sim_rate=44014 (inst/sec) elapsed = 0:0:02:27 / Tue Mar 22 13:21:00 2016
GPGPU-Sim PTX: 6700000 instructions simulated : ctaid=(9,0,0) tid=(191,0,0)
GPGPU-Sim uArch: cycles simulated: 146500  inst.: 6528000 (ipc=44.6) sim_rate=44108 (inst/sec) elapsed = 0:0:02:28 / Tue Mar 22 13:21:01 2016
GPGPU-Sim uArch: cycles simulated: 147500  inst.: 6582112 (ipc=44.6) sim_rate=44175 (inst/sec) elapsed = 0:0:02:29 / Tue Mar 22 13:21:02 2016
GPGPU-Sim PTX: 6800000 instructions simulated : ctaid=(15,0,0) tid=(127,0,0)
GPGPU-Sim uArch: cycles simulated: 148500  inst.: 6625056 (ipc=44.6) sim_rate=44167 (inst/sec) elapsed = 0:0:02:30 / Tue Mar 22 13:21:03 2016
GPGPU-Sim uArch: cycles simulated: 149500  inst.: 6665312 (ipc=44.6) sim_rate=44141 (inst/sec) elapsed = 0:0:02:31 / Tue Mar 22 13:21:04 2016
GPGPU-Sim uArch: cycles simulated: 150500  inst.: 6689504 (ipc=44.4) sim_rate=44009 (inst/sec) elapsed = 0:0:02:32 / Tue Mar 22 13:21:05 2016
GPGPU-Sim PTX: 6900000 instructions simulated : ctaid=(20,0,0) tid=(127,0,0)
GPGPU-Sim uArch: cycles simulated: 152000  inst.: 6743008 (ipc=44.4) sim_rate=44071 (inst/sec) elapsed = 0:0:02:33 / Tue Mar 22 13:21:06 2016
GPGPU-Sim uArch: cycles simulated: 153000  inst.: 6788832 (ipc=44.4) sim_rate=44083 (inst/sec) elapsed = 0:0:02:34 / Tue Mar 22 13:21:07 2016
GPGPU-Sim PTX: 7000000 instructions simulated : ctaid=(39,0,0) tid=(223,0,0)
GPGPU-Sim uArch: cycles simulated: 154000  inst.: 6837184 (ipc=44.4) sim_rate=44110 (inst/sec) elapsed = 0:0:02:35 / Tue Mar 22 13:21:08 2016
GPGPU-Sim uArch: cycles simulated: 155000  inst.: 6864480 (ipc=44.3) sim_rate=44003 (inst/sec) elapsed = 0:0:02:36 / Tue Mar 22 13:21:09 2016
GPGPU-Sim PTX: 7100000 instructions simulated : ctaid=(32,0,0) tid=(95,0,0)
GPGPU-Sim uArch: cycles simulated: 156000  inst.: 6895392 (ipc=44.2) sim_rate=43919 (inst/sec) elapsed = 0:0:02:37 / Tue Mar 22 13:21:10 2016
GPGPU-Sim uArch: cycles simulated: 157500  inst.: 6971488 (ipc=44.3) sim_rate=44123 (inst/sec) elapsed = 0:0:02:38 / Tue Mar 22 13:21:11 2016
GPGPU-Sim PTX: 7200000 instructions simulated : ctaid=(0,0,0) tid=(223,0,0)
GPGPU-Sim uArch: cycles simulated: 158500  inst.: 7022016 (ipc=44.3) sim_rate=44163 (inst/sec) elapsed = 0:0:02:39 / Tue Mar 22 13:21:12 2016
GPGPU-Sim uArch: cycles simulated: 159500  inst.: 7062368 (ipc=44.3) sim_rate=44139 (inst/sec) elapsed = 0:0:02:40 / Tue Mar 22 13:21:13 2016
GPGPU-Sim PTX: 7300000 instructions simulated : ctaid=(44,0,0) tid=(95,0,0)
GPGPU-Sim uArch: cycles simulated: 160500  inst.: 7109824 (ipc=44.3) sim_rate=44160 (inst/sec) elapsed = 0:0:02:41 / Tue Mar 22 13:21:14 2016
GPGPU-Sim uArch: cycles simulated: 161500  inst.: 7167232 (ipc=44.4) sim_rate=44242 (inst/sec) elapsed = 0:0:02:42 / Tue Mar 22 13:21:15 2016
GPGPU-Sim PTX: 7400000 instructions simulated : ctaid=(15,0,0) tid=(63,0,0)
GPGPU-Sim uArch: cycles simulated: 162500  inst.: 7204768 (ipc=44.3) sim_rate=44201 (inst/sec) elapsed = 0:0:02:43 / Tue Mar 22 13:21:16 2016
GPGPU-Sim uArch: cycles simulated: 163500  inst.: 7244352 (ipc=44.3) sim_rate=44172 (inst/sec) elapsed = 0:0:02:44 / Tue Mar 22 13:21:17 2016
GPGPU-Sim PTX: 7500000 instructions simulated : ctaid=(4,0,0) tid=(223,0,0)
GPGPU-Sim uArch: cycles simulated: 164500  inst.: 7287616 (ipc=44.3) sim_rate=44167 (inst/sec) elapsed = 0:0:02:45 / Tue Mar 22 13:21:18 2016
GPGPU-Sim uArch: cycles simulated: 166000  inst.: 7333024 (ipc=44.2) sim_rate=44174 (inst/sec) elapsed = 0:0:02:46 / Tue Mar 22 13:21:19 2016
GPGPU-Sim uArch: cycles simulated: 167000  inst.: 7372896 (ipc=44.1) sim_rate=44149 (inst/sec) elapsed = 0:0:02:47 / Tue Mar 22 13:21:20 2016
GPGPU-Sim PTX: 7600000 instructions simulated : ctaid=(10,0,0) tid=(63,0,0)
GPGPU-Sim uArch: cycles simulated: 168000  inst.: 7427360 (ipc=44.2) sim_rate=44210 (inst/sec) elapsed = 0:0:02:48 / Tue Mar 22 13:21:21 2016
GPGPU-Sim PTX: 7700000 instructions simulated : ctaid=(33,0,0) tid=(159,0,0)
GPGPU-Sim uArch: cycles simulated: 169000  inst.: 7480416 (ipc=44.3) sim_rate=44262 (inst/sec) elapsed = 0:0:02:49 / Tue Mar 22 13:21:22 2016
GPGPU-Sim uArch: cycles simulated: 170000  inst.: 7521632 (ipc=44.2) sim_rate=44244 (inst/sec) elapsed = 0:0:02:50 / Tue Mar 22 13:21:23 2016
GPGPU-Sim uArch: cycles simulated: 171500  inst.: 7571904 (ipc=44.2) sim_rate=44280 (inst/sec) elapsed = 0:0:02:51 / Tue Mar 22 13:21:24 2016
GPGPU-Sim PTX: 7800000 instructions simulated : ctaid=(29,0,0) tid=(127,0,0)
GPGPU-Sim uArch: cycles simulated: 172500  inst.: 7617632 (ipc=44.2) sim_rate=44288 (inst/sec) elapsed = 0:0:02:52 / Tue Mar 22 13:21:25 2016
GPGPU-Sim uArch: cycles simulated: 173500  inst.: 7662880 (ipc=44.2) sim_rate=44294 (inst/sec) elapsed = 0:0:02:53 / Tue Mar 22 13:21:26 2016
GPGPU-Sim PTX: 7900000 instructions simulated : ctaid=(6,0,0) tid=(31,0,0)
GPGPU-Sim uArch: cycles simulated: 174500  inst.: 7689152 (ipc=44.1) sim_rate=44190 (inst/sec) elapsed = 0:0:02:54 / Tue Mar 22 13:21:27 2016
GPGPU-Sim uArch: cycles simulated: 175500  inst.: 7718528 (ipc=44.0) sim_rate=44105 (inst/sec) elapsed = 0:0:02:55 / Tue Mar 22 13:21:28 2016
GPGPU-Sim PTX: 8000000 instructions simulated : ctaid=(12,0,0) tid=(63,0,0)
GPGPU-Sim uArch: cycles simulated: 177000  inst.: 7786720 (ipc=44.0) sim_rate=44242 (inst/sec) elapsed = 0:0:02:56 / Tue Mar 22 13:21:29 2016
GPGPU-Sim uArch: cycles simulated: 178000  inst.: 7852448 (ipc=44.1) sim_rate=44364 (inst/sec) elapsed = 0:0:02:57 / Tue Mar 22 13:21:30 2016
GPGPU-Sim PTX: 8100000 instructions simulated : ctaid=(30,0,0) tid=(191,0,0)
GPGPU-Sim uArch: cycles simulated: 179000  inst.: 7899488 (ipc=44.1) sim_rate=44379 (inst/sec) elapsed = 0:0:02:58 / Tue Mar 22 13:21:31 2016
GPGPU-Sim uArch: cycles simulated: 180000  inst.: 7931456 (ipc=44.1) sim_rate=44309 (inst/sec) elapsed = 0:0:02:59 / Tue Mar 22 13:21:32 2016
GPGPU-Sim PTX: 8200000 instructions simulated : ctaid=(24,0,0) tid=(223,0,0)
GPGPU-Sim uArch: cycles simulated: 181000  inst.: 7978656 (ipc=44.1) sim_rate=44325 (inst/sec) elapsed = 0:0:03:00 / Tue Mar 22 13:21:33 2016
GPGPU-Sim uArch: cycles simulated: 182500  inst.: 8049376 (ipc=44.1) sim_rate=44471 (inst/sec) elapsed = 0:0:03:01 / Tue Mar 22 13:21:34 2016
GPGPU-Sim PTX: 8300000 instructions simulated : ctaid=(33,0,0) tid=(255,0,0)
GPGPU-Sim uArch: cycles simulated: 183500  inst.: 8096320 (ipc=44.1) sim_rate=44485 (inst/sec) elapsed = 0:0:03:02 / Tue Mar 22 13:21:35 2016
GPGPU-Sim uArch: cycles simulated: 184500  inst.: 8131168 (ipc=44.1) sim_rate=44432 (inst/sec) elapsed = 0:0:03:03 / Tue Mar 22 13:21:36 2016
GPGPU-Sim PTX: 8400000 instructions simulated : ctaid=(31,0,0) tid=(95,0,0)
GPGPU-Sim uArch: cycles simulated: 185500  inst.: 8172544 (ipc=44.1) sim_rate=44416 (inst/sec) elapsed = 0:0:03:04 / Tue Mar 22 13:21:37 2016
GPGPU-Sim uArch: cycles simulated: 186500  inst.: 8227712 (ipc=44.1) sim_rate=44474 (inst/sec) elapsed = 0:0:03:05 / Tue Mar 22 13:21:38 2016
GPGPU-Sim PTX: 8500000 instructions simulated : ctaid=(19,0,0) tid=(127,0,0)
GPGPU-Sim uArch: cycles simulated: 187500  inst.: 8274528 (ipc=44.1) sim_rate=44486 (inst/sec) elapsed = 0:0:03:06 / Tue Mar 22 13:21:39 2016
GPGPU-Sim uArch: cycles simulated: 189000  inst.: 8330464 (ipc=44.1) sim_rate=44547 (inst/sec) elapsed = 0:0:03:07 / Tue Mar 22 13:21:40 2016
GPGPU-Sim PTX: 8600000 instructions simulated : ctaid=(11,0,0) tid=(127,0,0)
GPGPU-Sim uArch: cycles simulated: 190000  inst.: 8380896 (ipc=44.1) sim_rate=44579 (inst/sec) elapsed = 0:0:03:08 / Tue Mar 22 13:21:41 2016
GPGPU-Sim uArch: cycles simulated: 191000  inst.: 8419488 (ipc=44.1) sim_rate=44547 (inst/sec) elapsed = 0:0:03:09 / Tue Mar 22 13:21:42 2016
GPGPU-Sim PTX: 8700000 instructions simulated : ctaid=(22,0,0) tid=(255,0,0)
GPGPU-Sim uArch: cycles simulated: 192000  inst.: 8456000 (ipc=44.0) sim_rate=44505 (inst/sec) elapsed = 0:0:03:10 / Tue Mar 22 13:21:43 2016
GPGPU-Sim uArch: cycles simulated: 193500  inst.: 8519904 (ipc=44.0) sim_rate=44606 (inst/sec) elapsed = 0:0:03:11 / Tue Mar 22 13:21:44 2016
GPGPU-Sim PTX: 8800000 instructions simulated : ctaid=(43,0,0) tid=(31,0,0)
GPGPU-Sim uArch: cycles simulated: 194500  inst.: 8557952 (ipc=44.0) sim_rate=44572 (inst/sec) elapsed = 0:0:03:12 / Tue Mar 22 13:21:45 2016
GPGPU-Sim uArch: cycles simulated: 195500  inst.: 8622272 (ipc=44.1) sim_rate=44674 (inst/sec) elapsed = 0:0:03:13 / Tue Mar 22 13:21:46 2016
GPGPU-Sim PTX: 8900000 instructions simulated : ctaid=(3,0,0) tid=(31,0,0)
GPGPU-Sim uArch: cycles simulated: 196500  inst.: 8670048 (ipc=44.1) sim_rate=44690 (inst/sec) elapsed = 0:0:03:14 / Tue Mar 22 13:21:47 2016
GPGPU-Sim uArch: cycles simulated: 198000  inst.: 8717056 (ipc=44.0) sim_rate=44702 (inst/sec) elapsed = 0:0:03:15 / Tue Mar 22 13:21:48 2016
GPGPU-Sim PTX: 9000000 instructions simulated : ctaid=(47,0,0) tid=(223,0,0)
GPGPU-Sim uArch: cycles simulated: 199500  inst.: 8784288 (ipc=44.0) sim_rate=44817 (inst/sec) elapsed = 0:0:03:16 / Tue Mar 22 13:21:49 2016
GPGPU-Sim PTX: 9100000 instructions simulated : ctaid=(41,0,0) tid=(31,0,0)
GPGPU-Sim uArch: cycles simulated: 201000  inst.: 8842272 (ipc=44.0) sim_rate=44884 (inst/sec) elapsed = 0:0:03:17 / Tue Mar 22 13:21:50 2016
GPGPU-Sim uArch: cycles simulated: 202000  inst.: 8895616 (ipc=44.0) sim_rate=44927 (inst/sec) elapsed = 0:0:03:18 / Tue Mar 22 13:21:51 2016
GPGPU-Sim PTX: 9200000 instructions simulated : ctaid=(39,0,0) tid=(127,0,0)
GPGPU-Sim uArch: cycles simulated: 204000  inst.: 8961632 (ipc=43.9) sim_rate=45033 (inst/sec) elapsed = 0:0:03:19 / Tue Mar 22 13:21:52 2016
GPGPU-Sim PTX: 9300000 instructions simulated : ctaid=(9,0,0) tid=(159,0,0)
GPGPU-Sim uArch: cycles simulated: 205500  inst.: 9034176 (ipc=44.0) sim_rate=45170 (inst/sec) elapsed = 0:0:03:20 / Tue Mar 22 13:21:53 2016
GPGPU-Sim uArch: cycles simulated: 207000  inst.: 9104832 (ipc=44.0) sim_rate=45297 (inst/sec) elapsed = 0:0:03:21 / Tue Mar 22 13:21:54 2016
GPGPU-Sim PTX: 9400000 instructions simulated : ctaid=(15,0,0) tid=(127,0,0)
GPGPU-Sim uArch: cycles simulated: 208500  inst.: 9158112 (ipc=43.9) sim_rate=45337 (inst/sec) elapsed = 0:0:03:22 / Tue Mar 22 13:21:55 2016
GPGPU-Sim uArch: cycles simulated: 210000  inst.: 9220864 (ipc=43.9) sim_rate=45422 (inst/sec) elapsed = 0:0:03:23 / Tue Mar 22 13:21:56 2016
GPGPU-Sim PTX: 9500000 instructions simulated : ctaid=(23,0,0) tid=(31,0,0)
GPGPU-Sim uArch: cycles simulated: 211500  inst.: 9312800 (ipc=44.0) sim_rate=45650 (inst/sec) elapsed = 0:0:03:24 / Tue Mar 22 13:21:57 2016
GPGPU-Sim PTX: 9600000 instructions simulated : ctaid=(4,0,0) tid=(63,0,0)
GPGPU-Sim uArch: cycles simulated: 213000  inst.: 9381824 (ipc=44.0) sim_rate=45764 (inst/sec) elapsed = 0:0:03:25 / Tue Mar 22 13:21:58 2016
GPGPU-Sim PTX: 9700000 instructions simulated : ctaid=(7,0,0) tid=(159,0,0)
GPGPU-Sim uArch: cycles simulated: 214500  inst.: 9444256 (ipc=44.0) sim_rate=45845 (inst/sec) elapsed = 0:0:03:26 / Tue Mar 22 13:21:59 2016
GPGPU-Sim uArch: cycles simulated: 216000  inst.: 9498112 (ipc=44.0) sim_rate=45884 (inst/sec) elapsed = 0:0:03:27 / Tue Mar 22 13:22:00 2016
GPGPU-Sim PTX: 9800000 instructions simulated : ctaid=(10,0,0) tid=(159,0,0)
GPGPU-Sim uArch: cycles simulated: 217500  inst.: 9572992 (ipc=44.0) sim_rate=46024 (inst/sec) elapsed = 0:0:03:28 / Tue Mar 22 13:22:01 2016
GPGPU-Sim PTX: 9900000 instructions simulated : ctaid=(39,0,0) tid=(159,0,0)
GPGPU-Sim uArch: cycles simulated: 219000  inst.: 9646720 (ipc=44.0) sim_rate=46156 (inst/sec) elapsed = 0:0:03:29 / Tue Mar 22 13:22:02 2016
GPGPU-Sim uArch: cycles simulated: 220500  inst.: 9695520 (ipc=44.0) sim_rate=46169 (inst/sec) elapsed = 0:0:03:30 / Tue Mar 22 13:22:03 2016
GPGPU-Sim PTX: 10000000 instructions simulated : ctaid=(0,0,0) tid=(223,0,0)
GPGPU-Sim uArch: cycles simulated: 222000  inst.: 9757600 (ipc=44.0) sim_rate=46244 (inst/sec) elapsed = 0:0:03:31 / Tue Mar 22 13:22:04 2016
GPGPU-Sim PTX: 10100000 instructions simulated : ctaid=(33,0,0) tid=(191,0,0)
GPGPU-Sim uArch: cycles simulated: 223500  inst.: 9824096 (ipc=44.0) sim_rate=46340 (inst/sec) elapsed = 0:0:03:32 / Tue Mar 22 13:22:05 2016
GPGPU-Sim uArch: cycles simulated: 225000  inst.: 9899744 (ipc=44.0) sim_rate=46477 (inst/sec) elapsed = 0:0:03:33 / Tue Mar 22 13:22:06 2016
GPGPU-Sim PTX: 10200000 instructions simulated : ctaid=(4,0,0) tid=(31,0,0)
GPGPU-Sim uArch: cycles simulated: 227000  inst.: 9985312 (ipc=44.0) sim_rate=46660 (inst/sec) elapsed = 0:0:03:34 / Tue Mar 22 13:22:07 2016
GPGPU-Sim PTX: 10300000 instructions simulated : ctaid=(35,0,0) tid=(223,0,0)
GPGPU-Sim uArch: cycles simulated: 228500  inst.: 10042720 (ipc=44.0) sim_rate=46710 (inst/sec) elapsed = 0:0:03:35 / Tue Mar 22 13:22:08 2016
GPGPU-Sim PTX: 10400000 instructions simulated : ctaid=(3,0,0) tid=(159,0,0)
GPGPU-Sim uArch: cycles simulated: 230000  inst.: 10129056 (ipc=44.0) sim_rate=46893 (inst/sec) elapsed = 0:0:03:36 / Tue Mar 22 13:22:09 2016
GPGPU-Sim uArch: cycles simulated: 231500  inst.: 10188832 (ipc=44.0) sim_rate=46953 (inst/sec) elapsed = 0:0:03:37 / Tue Mar 22 13:22:10 2016
GPGPU-Sim PTX: 10500000 instructions simulated : ctaid=(16,0,0) tid=(255,0,0)
GPGPU-Sim uArch: cycles simulated: 233000  inst.: 10236864 (ipc=43.9) sim_rate=46958 (inst/sec) elapsed = 0:0:03:38 / Tue Mar 22 13:22:11 2016
GPGPU-Sim PTX: 10600000 instructions simulated : ctaid=(21,0,0) tid=(127,0,0)
GPGPU-Sim uArch: cycles simulated: 234500  inst.: 10314400 (ipc=44.0) sim_rate=47097 (inst/sec) elapsed = 0:0:03:39 / Tue Mar 22 13:22:12 2016
GPGPU-Sim uArch: cycles simulated: 236000  inst.: 10379968 (ipc=44.0) sim_rate=47181 (inst/sec) elapsed = 0:0:03:40 / Tue Mar 22 13:22:13 2016
GPGPU-Sim PTX: 10700000 instructions simulated : ctaid=(39,0,0) tid=(63,0,0)
GPGPU-Sim uArch: cycles simulated: 237500  inst.: 10428672 (ipc=43.9) sim_rate=47188 (inst/sec) elapsed = 0:0:03:41 / Tue Mar 22 13:22:14 2016
GPGPU-Sim PTX: 10800000 instructions simulated : ctaid=(21,0,0) tid=(191,0,0)
GPGPU-Sim uArch: cycles simulated: 239000  inst.: 10495872 (ipc=43.9) sim_rate=47278 (inst/sec) elapsed = 0:0:03:42 / Tue Mar 22 13:22:15 2016
GPGPU-Sim uArch: cycles simulated: 240500  inst.: 10561472 (ipc=43.9) sim_rate=47360 (inst/sec) elapsed = 0:0:03:43 / Tue Mar 22 13:22:16 2016
GPGPU-Sim PTX: 10900000 instructions simulated : ctaid=(15,0,0) tid=(31,0,0)
GPGPU-Sim uArch: cycles simulated: 242000  inst.: 10638272 (ipc=44.0) sim_rate=47492 (inst/sec) elapsed = 0:0:03:44 / Tue Mar 22 13:22:17 2016
GPGPU-Sim PTX: 11000000 instructions simulated : ctaid=(9,0,0) tid=(191,0,0)
GPGPU-Sim uArch: cycles simulated: 243500  inst.: 10704256 (ipc=44.0) sim_rate=47574 (inst/sec) elapsed = 0:0:03:45 / Tue Mar 22 13:22:18 2016
GPGPU-Sim uArch: cycles simulated: 245000  inst.: 10781184 (ipc=44.0) sim_rate=47704 (inst/sec) elapsed = 0:0:03:46 / Tue Mar 22 13:22:19 2016
GPGPU-Sim PTX: 11100000 instructions simulated : ctaid=(5,0,0) tid=(191,0,0)
GPGPU-Sim uArch: cycles simulated: 246500  inst.: 10839584 (ipc=44.0) sim_rate=47751 (inst/sec) elapsed = 0:0:03:47 / Tue Mar 22 13:22:20 2016
GPGPU-Sim PTX: 11200000 instructions simulated : ctaid=(46,0,0) tid=(223,0,0)
GPGPU-Sim uArch: cycles simulated: 248000  inst.: 10896608 (ipc=43.9) sim_rate=47792 (inst/sec) elapsed = 0:0:03:48 / Tue Mar 22 13:22:21 2016
GPGPU-Sim uArch: cycles simulated: 249500  inst.: 10954976 (ipc=43.9) sim_rate=47838 (inst/sec) elapsed = 0:0:03:49 / Tue Mar 22 13:22:22 2016
GPGPU-Sim PTX: 11300000 instructions simulated : ctaid=(43,0,0) tid=(255,0,0)
GPGPU-Sim uArch: cycles simulated: 251000  inst.: 11018336 (ipc=43.9) sim_rate=47905 (inst/sec) elapsed = 0:0:03:50 / Tue Mar 22 13:22:23 2016
GPGPU-Sim PTX: 11400000 instructions simulated : ctaid=(16,0,0) tid=(63,0,0)
GPGPU-Sim uArch: cycles simulated: 252500  inst.: 11119904 (ipc=44.0) sim_rate=48138 (inst/sec) elapsed = 0:0:03:51 / Tue Mar 22 13:22:24 2016
GPGPU-Sim PTX: 11500000 instructions simulated : ctaid=(28,0,0) tid=(127,0,0)
GPGPU-Sim uArch: cycles simulated: 254000  inst.: 11173312 (ipc=44.0) sim_rate=48160 (inst/sec) elapsed = 0:0:03:52 / Tue Mar 22 13:22:25 2016
GPGPU-Sim uArch: cycles simulated: 255000  inst.: 11220448 (ipc=44.0) sim_rate=48156 (inst/sec) elapsed = 0:0:03:53 / Tue Mar 22 13:22:26 2016
GPGPU-Sim uArch: cycles simulated: 256500  inst.: 11269888 (ipc=43.9) sim_rate=48161 (inst/sec) elapsed = 0:0:03:54 / Tue Mar 22 13:22:27 2016
GPGPU-Sim PTX: 11600000 instructions simulated : ctaid=(45,0,0) tid=(191,0,0)
GPGPU-Sim uArch: cycles simulated: 258000  inst.: 11336256 (ipc=43.9) sim_rate=48239 (inst/sec) elapsed = 0:0:03:55 / Tue Mar 22 13:22:28 2016
GPGPU-Sim PTX: 11700000 instructions simulated : ctaid=(26,0,0) tid=(31,0,0)
GPGPU-Sim uArch: cycles simulated: 259500  inst.: 11426080 (ipc=44.0) sim_rate=48415 (inst/sec) elapsed = 0:0:03:56 / Tue Mar 22 13:22:29 2016
GPGPU-Sim uArch: cycles simulated: 261000  inst.: 11463808 (ipc=43.9) sim_rate=48370 (inst/sec) elapsed = 0:0:03:57 / Tue Mar 22 13:22:30 2016
GPGPU-Sim PTX: 11800000 instructions simulated : ctaid=(36,0,0) tid=(31,0,0)
GPGPU-Sim uArch: cycles simulated: 263000  inst.: 11528192 (ipc=43.8) sim_rate=48437 (inst/sec) elapsed = 0:0:03:58 / Tue Mar 22 13:22:31 2016
GPGPU-Sim PTX: 11900000 instructions simulated : ctaid=(22,0,0) tid=(63,0,0)
GPGPU-Sim uArch: cycles simulated: 264500  inst.: 11639968 (ipc=44.0) sim_rate=48702 (inst/sec) elapsed = 0:0:03:59 / Tue Mar 22 13:22:32 2016
GPGPU-Sim PTX: 12000000 instructions simulated : ctaid=(33,0,0) tid=(31,0,0)
GPGPU-Sim uArch: cycles simulated: 266000  inst.: 11703200 (ipc=44.0) sim_rate=48763 (inst/sec) elapsed = 0:0:04:00 / Tue Mar 22 13:22:33 2016
GPGPU-Sim PTX: 12100000 instructions simulated : ctaid=(8,0,0) tid=(255,0,0)
GPGPU-Sim uArch: cycles simulated: 267500  inst.: 11757152 (ipc=44.0) sim_rate=48784 (inst/sec) elapsed = 0:0:04:01 / Tue Mar 22 13:22:34 2016
GPGPU-Sim uArch: cycles simulated: 269000  inst.: 11817984 (ipc=43.9) sim_rate=48834 (inst/sec) elapsed = 0:0:04:02 / Tue Mar 22 13:22:35 2016
GPGPU-Sim PTX: 12200000 instructions simulated : ctaid=(7,0,0) tid=(31,0,0)
GPGPU-Sim uArch: cycles simulated: 270500  inst.: 11871552 (ipc=43.9) sim_rate=48854 (inst/sec) elapsed = 0:0:04:03 / Tue Mar 22 13:22:36 2016
GPGPU-Sim PTX: 12300000 instructions simulated : ctaid=(15,0,0) tid=(127,0,0)
GPGPU-Sim uArch: cycles simulated: 272000  inst.: 11959264 (ipc=44.0) sim_rate=49013 (inst/sec) elapsed = 0:0:04:04 / Tue Mar 22 13:22:37 2016
GPGPU-Sim uArch: cycles simulated: 273500  inst.: 12012544 (ipc=43.9) sim_rate=49030 (inst/sec) elapsed = 0:0:04:05 / Tue Mar 22 13:22:38 2016
GPGPU-Sim PTX: 12400000 instructions simulated : ctaid=(41,0,0) tid=(159,0,0)
GPGPU-Sim uArch: cycles simulated: 274500  inst.: 12058144 (ipc=43.9) sim_rate=49016 (inst/sec) elapsed = 0:0:04:06 / Tue Mar 22 13:22:39 2016
GPGPU-Sim uArch: cycles simulated: 275500  inst.: 12113024 (ipc=44.0) sim_rate=49040 (inst/sec) elapsed = 0:0:04:07 / Tue Mar 22 13:22:40 2016
GPGPU-Sim PTX: 12500000 instructions simulated : ctaid=(38,0,0) tid=(223,0,0)
GPGPU-Sim uArch: cycles simulated: 277000  inst.: 12170784 (ipc=43.9) sim_rate=49075 (inst/sec) elapsed = 0:0:04:08 / Tue Mar 22 13:22:41 2016
GPGPU-Sim PTX: 12600000 instructions simulated : ctaid=(32,0,0) tid=(191,0,0)
GPGPU-Sim uArch: cycles simulated: 278500  inst.: 12248864 (ipc=44.0) sim_rate=49192 (inst/sec) elapsed = 0:0:04:09 / Tue Mar 22 13:22:42 2016
GPGPU-Sim uArch: cycles simulated: 279500  inst.: 12288672 (ipc=44.0) sim_rate=49154 (inst/sec) elapsed = 0:0:04:10 / Tue Mar 22 13:22:43 2016
GPGPU-Sim uArch: cycles simulated: 281000  inst.: 12334816 (ipc=43.9) sim_rate=49142 (inst/sec) elapsed = 0:0:04:11 / Tue Mar 22 13:22:44 2016
GPGPU-Sim PTX: 12700000 instructions simulated : ctaid=(3,0,0) tid=(159,0,0)
GPGPU-Sim uArch: cycles simulated: 282500  inst.: 12408448 (ipc=43.9) sim_rate=49239 (inst/sec) elapsed = 0:0:04:12 / Tue Mar 22 13:22:45 2016
GPGPU-Sim PTX: 12800000 instructions simulated : ctaid=(35,0,0) tid=(63,0,0)
GPGPU-Sim uArch: cycles simulated: 283500  inst.: 12443840 (ipc=43.9) sim_rate=49185 (inst/sec) elapsed = 0:0:04:13 / Tue Mar 22 13:22:46 2016
GPGPU-Sim uArch: cycles simulated: 285000  inst.: 12510272 (ipc=43.9) sim_rate=49253 (inst/sec) elapsed = 0:0:04:14 / Tue Mar 22 13:22:47 2016
GPGPU-Sim PTX: 12900000 instructions simulated : ctaid=(21,0,0) tid=(191,0,0)
GPGPU-Sim uArch: cycles simulated: 286500  inst.: 12603520 (ipc=44.0) sim_rate=49425 (inst/sec) elapsed = 0:0:04:15 / Tue Mar 22 13:22:48 2016
GPGPU-Sim PTX: 13000000 instructions simulated : ctaid=(35,0,0) tid=(159,0,0)
GPGPU-Sim uArch: cycles simulated: 287500  inst.: 12655712 (ipc=44.0) sim_rate=49436 (inst/sec) elapsed = 0:0:04:16 / Tue Mar 22 13:22:49 2016
GPGPU-Sim uArch: cycles simulated: 289000  inst.: 12702624 (ipc=44.0) sim_rate=49426 (inst/sec) elapsed = 0:0:04:17 / Tue Mar 22 13:22:50 2016
GPGPU-Sim PTX: 13100000 instructions simulated : ctaid=(1,0,0) tid=(31,0,0)
GPGPU-Sim uArch: cycles simulated: 290000  inst.: 12728832 (ipc=43.9) sim_rate=49336 (inst/sec) elapsed = 0:0:04:18 / Tue Mar 22 13:22:51 2016
GPGPU-Sim uArch: cycles simulated: 291500  inst.: 12801472 (ipc=43.9) sim_rate=49426 (inst/sec) elapsed = 0:0:04:19 / Tue Mar 22 13:22:52 2016
GPGPU-Sim PTX: 13200000 instructions simulated : ctaid=(21,0,0) tid=(127,0,0)
GPGPU-Sim uArch: cycles simulated: 293000  inst.: 12884128 (ipc=44.0) sim_rate=49554 (inst/sec) elapsed = 0:0:04:20 / Tue Mar 22 13:22:53 2016
GPGPU-Sim PTX: 13300000 instructions simulated : ctaid=(41,0,0) tid=(95,0,0)
GPGPU-Sim uArch: cycles simulated: 294000  inst.: 12928448 (ipc=44.0) sim_rate=49534 (inst/sec) elapsed = 0:0:04:21 / Tue Mar 22 13:22:54 2016
GPGPU-Sim uArch: cycles simulated: 295000  inst.: 12969536 (ipc=44.0) sim_rate=49502 (inst/sec) elapsed = 0:0:04:22 / Tue Mar 22 13:22:55 2016
GPGPU-Sim PTX: 13400000 instructions simulated : ctaid=(38,0,0) tid=(191,0,0)
GPGPU-Sim uArch: cycles simulated: 296500  inst.: 13028608 (ipc=43.9) sim_rate=49538 (inst/sec) elapsed = 0:0:04:23 / Tue Mar 22 13:22:56 2016
GPGPU-Sim uArch: cycles simulated: 297500  inst.: 13080192 (ipc=44.0) sim_rate=49546 (inst/sec) elapsed = 0:0:04:24 / Tue Mar 22 13:22:57 2016
GPGPU-Sim PTX: 13500000 instructions simulated : ctaid=(33,0,0) tid=(191,0,0)
GPGPU-Sim uArch: cycles simulated: 299000  inst.: 13140800 (ipc=43.9) sim_rate=49587 (inst/sec) elapsed = 0:0:04:25 / Tue Mar 22 13:22:58 2016
GPGPU-Sim uArch: cycles simulated: 300500  inst.: 13181376 (ipc=43.9) sim_rate=49554 (inst/sec) elapsed = 0:0:04:26 / Tue Mar 22 13:22:59 2016
GPGPU-Sim PTX: 13600000 instructions simulated : ctaid=(16,0,0) tid=(31,0,0)
GPGPU-Sim uArch: cycles simulated: 301500  inst.: 13220544 (ipc=43.8) sim_rate=49515 (inst/sec) elapsed = 0:0:04:27 / Tue Mar 22 13:23:00 2016
GPGPU-Sim PTX: 13700000 instructions simulated : ctaid=(41,0,0) tid=(63,0,0)
GPGPU-Sim uArch: cycles simulated: 303000  inst.: 13312160 (ipc=43.9) sim_rate=49672 (inst/sec) elapsed = 0:0:04:28 / Tue Mar 22 13:23:01 2016
GPGPU-Sim uArch: cycles simulated: 304500  inst.: 13382240 (ipc=43.9) sim_rate=49748 (inst/sec) elapsed = 0:0:04:29 / Tue Mar 22 13:23:02 2016
GPGPU-Sim PTX: 13800000 instructions simulated : ctaid=(45,0,0) tid=(159,0,0)
GPGPU-Sim uArch: cycles simulated: 305500  inst.: 13425984 (ipc=43.9) sim_rate=49725 (inst/sec) elapsed = 0:0:04:30 / Tue Mar 22 13:23:03 2016
GPGPU-Sim uArch: cycles simulated: 307000  inst.: 13489312 (ipc=43.9) sim_rate=49776 (inst/sec) elapsed = 0:0:04:31 / Tue Mar 22 13:23:04 2016
GPGPU-Sim PTX: 13900000 instructions simulated : ctaid=(23,0,0) tid=(191,0,0)
GPGPU-Sim uArch: cycles simulated: 308000  inst.: 13536320 (ipc=43.9) sim_rate=49765 (inst/sec) elapsed = 0:0:04:32 / Tue Mar 22 13:23:05 2016
GPGPU-Sim uArch: cycles simulated: 309000  inst.: 13588256 (ipc=44.0) sim_rate=49773 (inst/sec) elapsed = 0:0:04:33 / Tue Mar 22 13:23:06 2016
GPGPU-Sim PTX: 14000000 instructions simulated : ctaid=(33,0,0) tid=(255,0,0)
GPGPU-Sim uArch: cycles simulated: 310500  inst.: 13643072 (ipc=43.9) sim_rate=49792 (inst/sec) elapsed = 0:0:04:34 / Tue Mar 22 13:23:07 2016
GPGPU-Sim PTX: 14100000 instructions simulated : ctaid=(39,0,0) tid=(223,0,0)
GPGPU-Sim uArch: cycles simulated: 312000  inst.: 13709824 (ipc=43.9) sim_rate=49853 (inst/sec) elapsed = 0:0:04:35 / Tue Mar 22 13:23:08 2016
GPGPU-Sim uArch: cycles simulated: 313000  inst.: 13745536 (ipc=43.9) sim_rate=49802 (inst/sec) elapsed = 0:0:04:36 / Tue Mar 22 13:23:09 2016
GPGPU-Sim PTX: 14200000 instructions simulated : ctaid=(33,0,0) tid=(127,0,0)
GPGPU-Sim uArch: cycles simulated: 314500  inst.: 13817120 (ipc=43.9) sim_rate=49881 (inst/sec) elapsed = 0:0:04:37 / Tue Mar 22 13:23:10 2016
GPGPU-Sim uArch: cycles simulated: 315500  inst.: 13852512 (ipc=43.9) sim_rate=49829 (inst/sec) elapsed = 0:0:04:38 / Tue Mar 22 13:23:11 2016
GPGPU-Sim PTX: 14300000 instructions simulated : ctaid=(28,0,0) tid=(223,0,0)
GPGPU-Sim uArch: cycles simulated: 317000  inst.: 13914560 (ipc=43.9) sim_rate=49872 (inst/sec) elapsed = 0:0:04:39 / Tue Mar 22 13:23:12 2016
GPGPU-Sim PTX: 14400000 instructions simulated : ctaid=(22,0,0) tid=(223,0,0)
GPGPU-Sim uArch: cycles simulated: 318500  inst.: 13996544 (ipc=43.9) sim_rate=49987 (inst/sec) elapsed = 0:0:04:40 / Tue Mar 22 13:23:13 2016
GPGPU-Sim uArch: cycles simulated: 319500  inst.: 14035392 (ipc=43.9) sim_rate=49948 (inst/sec) elapsed = 0:0:04:41 / Tue Mar 22 13:23:14 2016
GPGPU-Sim uArch: cycles simulated: 320500  inst.: 14072000 (ipc=43.9) sim_rate=49900 (inst/sec) elapsed = 0:0:04:42 / Tue Mar 22 13:23:15 2016
GPGPU-Sim PTX: 14500000 instructions simulated : ctaid=(44,0,0) tid=(223,0,0)
GPGPU-Sim uArch: cycles simulated: 321500  inst.: 14102880 (ipc=43.9) sim_rate=49833 (inst/sec) elapsed = 0:0:04:43 / Tue Mar 22 13:23:16 2016
GPGPU-Sim PTX: 14600000 instructions simulated : ctaid=(41,0,0) tid=(31,0,0)
GPGPU-Sim uArch: cycles simulated: 323000  inst.: 14193760 (ipc=43.9) sim_rate=49978 (inst/sec) elapsed = 0:0:04:44 / Tue Mar 22 13:23:17 2016
GPGPU-Sim uArch: cycles simulated: 324000  inst.: 14236320 (ipc=43.9) sim_rate=49952 (inst/sec) elapsed = 0:0:04:45 / Tue Mar 22 13:23:18 2016
[...]
traffic_breakdown_coretomem[INST_ACC_R] = 600 {8:75,}
traffic_breakdown_coretomem[TEXTURE_ACC_R] = 23585904 {8:2948238,}
traffic_breakdown_memtocore[CONST_ACC_R] = 1080 {72:15,}
traffic_breakdown_memtocore[GLOBAL_ACC_R] = 13787136 {136:101376,}
traffic_breakdown_memtocore[GLOBAL_ACC_W] = 55296 {8:6912,}
traffic_breakdown_memtocore[INST_ACC_R] = 10200 {136:75,}
traffic_breakdown_memtocore[TEXTURE_ACC_R] = 400960368 {136:2948238,}
maxmrqlatency = 155 
maxdqlatency = 0 
maxmflatency = 11047 
averagemflatency = 563 
max_icnt2mem_latency = 21436 
max_icnt2sh_latency = 2804868 
mrq_lat_table:88797 	4137 	2112 	2121 	8028 	1950 	494 	55 	0 	0 	0 	0 	0 	0 	0 	0 	0 	0 	0 	0 	0 	0 	0 	0 	0 	0 	0 	0 	0 	0 	0 	0 	
dq_lat_table:0 	0 	0 	0 	0 	0 	0 	0 	0 	0 	0 	0 	0 	0 	0 	0 	0 	0 	0 	0 	0 	0 	0 	0 	0 	0 	0 	0 	0 	0 	0 	0 	
mf_lat_table:0 	0 	0 	0 	1793 	8461 	33593 	208092 	1148244 	1590023 	37325 	18622 	10200 	188 	0 	0 	0 	0 	0 	0 	0 	0 	0 	0 	0 	0 	0 	0 	0 	0 	0 	0 	
icnt2mem_lat_table:0 	0 	0 	54914 	44149 	75114 	151983 	621093 	1549930 	523710 	11352 	16498 	7752 	120 	1 	0 	0 	0 	0 	0 	0 	0 	0 	0 	
icnt2sh_lat_table:0 	0 	0 	36482 	1583782 	1192853 	215259 	21213 	37 	3 	0 	0 	0 	0 	0 	0 	0 	0 	0 	1106 	2350 	3456 	0 	0 	
mf_lat_pw_table:0 	0 	0 	0 	0 	0 	2 	2 	1187 	4418 	0 	0 	0 	0 	0 	0 	0 	0 	0 	0 	0 	0 	0 	0 	0 	0 	0 	0 	0 	0 	0 	0 	
maximum concurrent accesses to same row:
dram[0]:        30        32        32        32        32        32        32        32        32        32        32        32        32        32        32        32 
dram[1]:        31        32        32        32        32        32        59        61        46        70        32        32        32        32        32        32 
dram[2]:        32        32        32        32        32        32        32        32        32        32        32        32        32        32        32        32 
dram[3]:        32        32        32        32        32        32        42        32        32        32        32        32        32        32        32        32 
dram[4]:        32        32        32        32        32        32        80        36        56        32        42        32        32        32        32        32 
dram[5]:        32        32        32        32        32        32        32        34        32        32        32        32        32        32        32        32 
maximum service time to same row:
dram[0]:     67363     63631     68322     65308     64609     72731     62731     66073     62761     67969     65505     74734     65406     70831     60977     64975 
dram[1]:     64179     64485     64150     68193     67928     66103     67359     63733     64260     64081     64891     68844     68078     66978     63575     64597 
dram[2]:     61608     68698     64453     67776     66712     63743     67108     63904     61852     63679     64337     63935     65178     67593     63542     69336 
dram[3]:     77101     63196     72938     68188     63774     64135     63505     63436     61014     66538     63872     64515     69281     64398     70646     63273 
dram[4]:     59883     62737     62672     65037     59662     68088     61559     65228     59588     67081     61231     71608     64450     69721     62853     71603 
dram[5]:     64243     66175     65818     64637     63030     63761     63577     62462     63485     60136     67458     59556     64776     64756     62365     67061 
average row accesses per activate:
dram[0]:  2.101191  2.295652  2.071287  2.170125  2.256729  2.319829  2.372137  2.405088  2.320965  2.383721  2.182994  2.238185  2.146342  2.261242  2.091089  2.246809 
dram[1]:  2.372197  2.422018  2.455399  2.532688  2.623501  2.658596  2.789709  2.938967  2.911833  2.927907  2.698876  2.636971  2.544578  2.550725  2.444444  2.544578 
dram[2]:  2.280172  2.526316  2.170125  2.603491  2.230453  2.563805  2.406189  2.692308  2.346080  2.602105  2.325397  2.589286  2.285714  2.581907  2.295652  2.538461 
dram[3]:  2.290673  2.362416  2.230277  2.372727  2.305907  2.451327  2.344569  2.472946  2.345351  2.389535  2.264368  2.396304  2.325991  2.444444  2.275862  2.357143 
dram[4]:  2.305677  2.186335  2.273913  2.226013  2.416300  2.312369  2.684322  2.534137  2.648421  2.498998  2.540254  2.395161  2.383747  2.295652  2.285714  2.186335 
dram[5]:  2.218488  2.556901  2.220807  2.584158  2.364629  2.530892  2.406312  2.636943  2.485830  2.616034  2.367470  2.519480  2.266094  2.600985  2.357143  2.550725 
average row locality = 107694/44689 = 2.409855
number of total memory accesses made:
dram[0]:         0         0         0         0         0         0         0         0         0         0         0         0         0         0         0         0 
dram[1]:         0         0         0         0         0         0         0         0         0         0         0         0         0         0         0         0 
dram[2]:         0         0         0         0         0         0         0         0         0         0         0         0         0         0         0         0 
dram[3]:         0         0         0         0         0         0         0         0         0         0         0         0         0         0         0         0 
dram[4]:         0         0         0         0         0         0         0         0         0         0         0         0         0         0         0         0 
dram[5]:         0         0         0         0         0         0         0         0         0         0         0         0         0         0         0         0 
total accesses: 0
min_bank_accesses = 0!
min_chip_accesses = 0!
number of total read accesses:
dram[0]:      1059      1056      1046      1046      1044      1044      1088      1088      1088      1088      1078      1078      1056      1056      1056      1056 
dram[1]:      1058      1056      1046      1046      1044      1044      1088      1088      1088      1088      1078      1078      1056      1056      1056      1056 
dram[2]:      1058      1056      1046      1044      1044      1048      1088      1088      1088      1088      1078      1076      1056      1056      1056      1056 
dram[3]:      1056      1056      1046      1044      1044      1048      1088      1088      1088      1088      1078      1076      1056      1056      1056      1056 
dram[4]:      1056      1056      1046      1044      1044      1048      1088      1088      1088      1088      1078      1076      1056      1056      1056      1056 
dram[5]:      1056      1056      1046      1044      1044      1048      1088      1088      1088      1088      1078      1076      1056      1056      1056      1056 
total reads: 102151
bank skew: 1088/1044 = 1.04
chip skew: 17027/17024 = 1.00
number of total write accesses:
dram[0]:         0         0         0         0        46        44       155       141       163       142       103       106         0         0         0         0 
dram[1]:         0         0         0         0        50        54       159       164       167       171       123       106         0         0         0         0 
dram[2]:         0         0         0         0        40        57       156       137       139       148        94        84         0         0         0         0 
dram[3]:         0         0         0         0        49        60       164       146       148       145       104        91         0         0         0         0 
dram[4]:         0         0         0         0        53        55       179       174       170       159       121       112         0         0         0         0 
dram[5]:         0         0         0         0        39        58       132       154       140       152       101        88         0         0         0         0 
total reads: 5543
min_bank_accesses = 0!
chip skew: 1023/855 = 1.20
average mf latency per bank:
dram[0]:      31394     33346     22351     23690      1571      1611      1578      1624      1539      1590     10065     10640     31849     34139     31562     33136
dram[1]:      32019     31030     22492     22426      1635      1530      1492      1501      1574      1470      9858     10197     31484     32076     31834     32120
dram[2]:      32533     32072     22788     20789      1683      1586      1600      1691      1697      1667     10376     12190     32796     32195     32677     31594
dram[3]:      32767     32518     23089     21358      1517      1652      1526      1578      1557      1621      9976     12070     32651     32443     32708     32522
dram[4]:      30868     32397     22435     21481      1532      1622      1525      1520      1472      1530      9660     11609     32049     33077     31554     32263
dram[5]:      32580     31201     22565     20036      1670      1595      1696      1590      1571      1587     10238     11690     32189     31648     32164     31083
maximum mf latency per bank:
dram[0]:       8018     10834      8610      8612      8407      9190      8513      9122      9448     10493      8433      9574      8966      7951      9844      9655
dram[1]:       8506     11047      8909      8492      8643      9250      9168      9050      8917      8505      9058      8425      9025      8194      8748      8528
dram[2]:       8170      8383      9540      8125      8019     10124      9714      8062      8820      9328      8775      9330      9286      9859      9269      9520
dram[3]:       8199      8637      9482      8677      8631      9551      8922     10027      8497      8719      9023      7768      8288      9699      7876      8858
dram[4]:       7812      8246      9217      9044      9122      9749      8851      8150      9815      9643      8517      9026     10114      9382     10131      9615
dram[5]:       9272      7797     10644      9002      9338      9248      9192     10718      9286      8854      8592      9802     10227      9348      8031     10295

Number of Memory Banks Accessed per Memory Operation per Warp (from 0):
0	0	0	0	0	0	0	0	0	0	0	0	0	0	0	0	0	0	0	0	0	0	0	0	0	0	0	0	0	0	0	0	0	0	0	0	0	0	0	0	0	0	0	0	0	0	0	0	0	0	0	0	0	0	0	0	0	0	0	0	0	0	0	0	0	0	0	0	0	0	0	0	0	0	0	0	0	0	0	0	0	0	0	0	0	0	0	0	0	0	0	0	0	0	0	0	
Average # of Memory Banks Accessed per Memory Operation per Warp=-nan

position of mrq chosen
0	0	0	0	0	0	0	0	0	0	0	0	0	0	0	0	

average position of mrq chosen = -nan
Memory Partition 0: 
Cache L2_bank_000:
MSHR contents

Cache L2_bank_001:
MSHR contents

In Dram Latency Queue (total = 0): 
DRAM[0]: 16 bks, busW=4 BL=8 CL=12, tRRD=2 tCCD=6, tRCD=12 tRAS=28 tRP=12 tRC=40
n_cmd=3702426 n_nop=3650594 n_act=7997 n_pre=7981 n_req=17927 n_rd=34054 n_write=1800 bw_util=0.01937
n_activity=372698 dram_eff=0.1924
bk0: 2118a 3683836i bk1: 2112a 3685007i bk2: 2092a 3683821i bk3: 2092a 3684338i bk4: 2088a 3683565i bk5: 2088a 3684052i bk6: 2176a 3681389i bk7: 2176a 3681737i bk8: 2176a 3681006i bk9: 2176a 3681648i bk10: 2156a 3681385i bk11: 2156a 3681640i bk12: 2112a 3683427i bk13: 2112a 3684178i bk14: 2112a 3683140i bk15: 2112a 3684357i 
dram_util_bins: 0 0 0 0 0 0 0 0 0 0
dram_eff_bins: 0 0 0 0 0 0 0 0 0 0
mrqq: max=16 avg=0.0171655
Memory Partition 1: 
Cache L2_bank_002:
MSHR contents

Cache L2_bank_003:
MSHR contents

In Dram Latency Queue (total = 0): 
DRAM[1]: 16 bks, busW=4 BL=8 CL=12, tRRD=2 tCCD=6, tRCD=12 tRAS=28 tRP=12 tRC=40
n_cmd=3702426 n_nop=3652692 n_act=6855 n_pre=6839 n_req=18020 n_rd=34052 n_write=1988 bw_util=0.01947
n_activity=350894 dram_eff=0.2054
bk0: 2116a 3685480i bk1: 2112a 3685823i bk2: 2092a 3685524i bk3: 2092a 3686047i bk4: 2088a 3685150i bk5: 2088a 3685253i bk6: 2176a 3682835i bk7: 2176a 3683647i bk8: 2176a 3683595i bk9: 2176a 3683693i bk10: 2156a 3683536i bk11: 2156a 3683680i bk12: 2112a 3685736i bk13: 2112a 3685682i bk14: 2112a 3685180i bk15: 2112a 3685814i 
dram_util_bins: 0 0 0 0 0 0 0 0 0 0
dram_eff_bins: 0 0 0 0 0 0 0 0 0 0
mrqq: max=16 avg=0.0223224
Memory Partition 2: 
Cache L2_bank_004:
MSHR contents

Cache L2_bank_005:
MSHR contents

In Dram Latency Queue (total = 0): 
DRAM[2]: 16 bks, busW=4 BL=8 CL=12, tRRD=2 tCCD=6, tRCD=12 tRAS=28 tRP=12 tRC=40
n_cmd=3702426 n_nop=3651978 n_act=7351 n_pre=7335 n_req=17881 n_rd=34052 n_write=1710 bw_util=0.01932
n_activity=360979 dram_eff=0.1981
bk0: 2116a 3685071i bk1: 2112a 3686219i bk2: 2092a 3684241i bk3: 2088a 3686190i bk4: 2088a 3683428i bk5: 2096a 3684765i bk6: 2176a 3681302i bk7: 2176a 3682677i bk8: 2176a 3681825i bk9: 2176a 3682496i bk10: 2156a 3682229i bk11: 2152a 3683908i bk12: 2112a 3684586i bk13: 2112a 3685740i bk14: 2112a 3684700i bk15: 2112a 3685524i 
dram_util_bins: 0 0 0 0 0 0 0 0 0 0
dram_eff_bins: 0 0 0 0 0 0 0 0 0 0
mrqq: max=16 avg=0.0198589
Memory Partition 3: 
Cache L2_bank_006:
MSHR contents

Cache L2_bank_007:
MSHR contents

In Dram Latency Queue (total = 0): 
DRAM[3]: 16 bks, busW=4 BL=8 CL=12, tRRD=2 tCCD=6, tRCD=12 tRAS=28 tRP=12 tRC=40
n_cmd=3702426 n_nop=3651328 n_act=7626 n_pre=7610 n_req=17931 n_rd=34048 n_write=1814 bw_util=0.01937
n_activity=367489 dram_eff=0.1952
bk0: 2112a 3685052i bk1: 2112a 3685332i bk2: 2092a 3684601i bk3: 2088a 3685308i bk4: 2088a 3683962i bk5: 2096a 3684314i bk6: 2176a 3681178i bk7: 2176a 3681902i bk8: 2176a 3681706i bk9: 2176a 3681773i bk10: 2156a 3681968i bk11: 2152a 3682771i bk12: 2112a 3684503i bk13: 2112a 3685302i bk14: 2112a 3684398i bk15: 2112a 3684616i 
dram_util_bins: 0 0 0 0 0 0 0 0 0 0
dram_eff_bins: 0 0 0 0 0 0 0 0 0 0
mrqq: max=16 avg=0.0162021
Memory Partition 4: 
Cache L2_bank_008:
MSHR contents

Cache L2_bank_009:
MSHR contents

In Dram Latency Queue (total = 0): 
DRAM[4]: 16 bks, busW=4 BL=8 CL=12, tRRD=2 tCCD=6, tRCD=12 tRAS=28 tRP=12 tRC=40
n_cmd=3702426 n_nop=3651226 n_act=7561 n_pre=7545 n_req=18047 n_rd=34048 n_write=2046 bw_util=0.0195
n_activity=367250 dram_eff=0.1966
bk0: 2112a 3685245i bk1: 2112a 3684380i bk2: 2092a 3684864i bk3: 2088a 3684619i bk4: 2088a 3684150i bk5: 2096a 3683721i bk6: 2176a 3682182i bk7: 2176a 3681358i bk8: 2176a 3682239i bk9: 2176a 3681362i bk10: 2156a 3682878i bk11: 2152a 3682030i bk12: 2112a 3685096i bk13: 2112a 3684521i bk14: 2112a 3684491i bk15: 2112a 3683869i 
dram_util_bins: 0 0 0 0 0 0 0 0 0 0
dram_eff_bins: 0 0 0 0 0 0 0 0 0 0
mrqq: max=16 avg=0.0250233
Memory Partition 5: 
Cache L2_bank_010:
MSHR contents

Cache L2_bank_011:
MSHR contents

In Dram Latency Queue (total = 0): 
DRAM[5]: 16 bks, busW=4 BL=8 CL=12, tRRD=2 tCCD=6, tRCD=12 tRAS=28 tRP=12 tRC=40
n_cmd=3702426 n_nop=3652068 n_act=7299 n_pre=7283 n_req=17888 n_rd=34048 n_write=1728 bw_util=0.01933
n_activity=358919 dram_eff=0.1994
bk0: 2112a 3684782i bk1: 2112a 3686202i bk2: 2092a 3684569i bk3: 2088a 3686281i bk4: 2088a 3684347i bk5: 2096a 3684648i bk6: 2176a 3681932i bk7: 2176a 3682086i bk8: 2176a 3682380i bk9: 2176a 3682302i bk10: 2156a 3682422i bk11: 2152a 3683345i bk12: 2112a 3684430i bk13: 2112a 3685864i bk14: 2112a 3684854i bk15: 2112a 3685831i 
dram_util_bins: 0 0 0 0 0 0 0 0 0 0
dram_eff_bins: 0 0 0 0 0 0 0 0 0 0
mrqq: max=16 avg=0.0204925

========= L2 cache stats =========
L2_cache_bank[0]: Access = 253454, Miss = 8515, Miss_rate = 0.034, Pending_hits = 222, Reservation_fails = 399
L2_cache_bank[1]: Access = 255693, Miss = 8512, Miss_rate = 0.033, Pending_hits = 168, Reservation_fails = 7
L2_cache_bank[2]: Access = 254190, Miss = 8514, Miss_rate = 0.033, Pending_hits = 266, Reservation_fails = 243
L2_cache_bank[3]: Access = 254636, Miss = 8512, Miss_rate = 0.033, Pending_hits = 257, Reservation_fails = 27
L2_cache_bank[4]: Access = 255161, Miss = 8514, Miss_rate = 0.033, Pending_hits = 119, Reservation_fails = 9
L2_cache_bank[5]: Access = 254707, Miss = 8512, Miss_rate = 0.033, Pending_hits = 118, Reservation_fails = 309
L2_cache_bank[6]: Access = 255097, Miss = 8512, Miss_rate = 0.033, Pending_hits = 220, Reservation_fails = 109
L2_cache_bank[7]: Access = 256169, Miss = 8512, Miss_rate = 0.033, Pending_hits = 185, Reservation_fails = 357
L2_cache_bank[8]: Access = 254738, Miss = 8512, Miss_rate = 0.033, Pending_hits = 307, Reservation_fails = 158
L2_cache_bank[9]: Access = 255284, Miss = 8512, Miss_rate = 0.033, Pending_hits = 267, Reservation_fails = 76
L2_cache_bank[10]: Access = 254713, Miss = 8512, Miss_rate = 0.033, Pending_hits = 98, Reservation_fails = 132
L2_cache_bank[11]: Access = 252774, Miss = 8512, Miss_rate = 0.034, Pending_hits = 156, Reservation_fails = 24
L2_total_cache_accesses = 3056616
L2_total_cache_misses = 102151
L2_total_cache_miss_rate = 0.0334
L2_total_cache_pending_hits = 2383
L2_total_cache_reservation_fails = 1850
L2_total_cache_breakdown:
	L2_cache_stats_breakdown[GLOBAL_ACC_R][HIT] = 1563
	L2_cache_stats_breakdown[GLOBAL_ACC_R][HIT_RESERVED] = 3
	L2_cache_stats_breakdown[GLOBAL_ACC_R][MISS] = 99810
	L2_cache_stats_breakdown[GLOBAL_ACC_R][RESERVATION_FAIL] = 1403
	L2_cache_stats_breakdown[CONST_ACC_R][HIT] = 11
	L2_cache_stats_breakdown[CONST_ACC_R][HIT_RESERVED] = 3
	L2_cache_stats_breakdown[CONST_ACC_R][MISS] = 1
	L2_cache_stats_breakdown[CONST_ACC_R][RESERVATION_FAIL] = 103
	L2_cache_stats_breakdown[TEXTURE_ACC_R][HIT] = 2948189
	L2_cache_stats_breakdown[TEXTURE_ACC_R][HIT_RESERVED] = 19
	L2_cache_stats_breakdown[TEXTURE_ACC_R][MISS] = 30
	L2_cache_stats_breakdown[GLOBAL_ACC_W][HIT] = 2257
	L2_cache_stats_breakdown[GLOBAL_ACC_W][HIT_RESERVED] = 2351
	L2_cache_stats_breakdown[GLOBAL_ACC_W][MISS] = 2304
	L2_cache_stats_breakdown[GLOBAL_ACC_W][RESERVATION_FAIL] = 220
	L2_cache_stats_breakdown[INST_ACC_R][HIT] = 62
	L2_cache_stats_breakdown[INST_ACC_R][HIT_RESERVED] = 7
	L2_cache_stats_breakdown[INST_ACC_R][MISS] = 6
	L2_cache_stats_breakdown[INST_ACC_R][RESERVATION_FAIL] = 124
L2_cache_data_port_util = 0.351
L2_cache_fill_port_util = 0.012

icnt_total_pkts_mem_to_simt=15255402
icnt_total_pkts_simt_to_mem=3084264
LD_mem_lat_dist  0 0 0 0 0 0 0 0 0 0 0 0 0 0 0 0 0 0 0 0 0 0 0 0 0 0 0
ST_mem_lat_dist  0 0 0 0 0 0 0 0 0 0 0 0 0 0 0 0 0 0 0 0 0 0 0 0 0 0 0
----------------------------Interconnect-DETAILS--------------------------------
Class 0:
Packet latency average = 124.15
	minimum = 6
	maximum = 1193
Network latency average = 68.8922
	minimum = 6
	maximum = 1064
Slowest packet = 3061410
Flit latency average = 34.0593
	minimum = 6
	maximum = 1064
Slowest flit = 16808708
Fragmentation average = 0.0103889
	minimum = 0
	maximum = 341
Injected packet rate average = 0.0806829
	minimum = 0.0679469 (at node 13)
	maximum = 0.0912587 (at node 22)
Accepted packet rate average = 0.0806829
	minimum = 0.0679469 (at node 13)
	maximum = 0.0912587 (at node 22)
Injected flit rate average = 0.242049
	minimum = 0.0685629 (at node 13)
	maximum = 0.455472 (at node 22)
Accepted flit rate average= 0.242049
	minimum = 0.0909165 (at node 26)
	maximum = 0.453316 (at node 5)
Injected packet length average = 3
Accepted packet length average = 3
Total in-flight flits = 0 (0 measured)
====== Overall Traffic Statistics ======
====== Traffic class 0 ======
Packet latency average = 124.15 (2 samples)
	minimum = 6 (2 samples)
	maximum = 1205 (2 samples)
Network latency average = 68.8759 (2 samples)
	minimum = 6 (2 samples)
	maximum = 1068 (2 samples)
Flit latency average = 34.04 (2 samples)
	minimum = 6 (2 samples)
	maximum = 1068 (2 samples)
Fragmentation average = 0.0104524 (2 samples)
	minimum = 0 (2 samples)
	maximum = 264 (2 samples)
Injected packet rate average = 0.0807225 (2 samples)
	minimum = 0.068016 (2 samples)
	maximum = 0.0913301 (2 samples)
Accepted packet rate average = 0.0807225 (2 samples)
	minimum = 0.068016 (2 samples)
	maximum = 0.0913301 (2 samples)
Injected flit rate average = 0.242167 (2 samples)
	minimum = 0.0686321 (2 samples)
	maximum = 0.455829 (2 samples)
Accepted flit rate average = 0.242167 (2 samples)
	minimum = 0.0909411 (2 samples)
	maximum = 0.453397 (2 samples)
Injected packet size average = 3 (2 samples)
Accepted packet size average = 3 (2 samples)
Hops average = 1 (2 samples)
