

        *** GPGPU-Sim Simulator Version 3.2.2  [build 0] ***


GPGPU-Sim PTX: simulation mode 0 (can change with PTX_SIM_MODE_FUNC environment variable:
               1=functional simulation only, 0=detailed performance simulator)
GPGPU-Sim: Configuration options:

-network_mode                           1 # Interconnection network mode
-inter_config_file   config_fermi_islip.icnt # Interconnection network config file
-gpgpu_ptx_use_cuobjdump                    1 # Use cuobjdump to extract ptx and sass from binaries
-gpgpu_experimental_lib_support                    0 # Try to extract code from cuda libraries [Broken because of unknown cudaGetExportTable]
-gpgpu_ptx_convert_to_ptxplus                    0 # Convert SASS (native ISA) to ptxplus and run ptxplus
-gpgpu_ptx_force_max_capability                   20 # Force maximum compute capability
-gpgpu_ptx_inst_debug_to_file                    0 # Dump executed instructions' debug information to file
-gpgpu_ptx_inst_debug_file       inst_debug.txt # Executed instructions' debug output file
-gpgpu_ptx_inst_debug_thread_uid                    1 # Thread UID for executed instructions' debug output
-gpgpu_simd_model                       1 # 1 = post-dominator
-gpgpu_shader_core_pipeline              1536:32 # shader core pipeline config, i.e., {<nthread>:<warpsize>}
-gpgpu_tex_cache:l1  4:128:24,L:R:m:N:L,F:128:4,128:2 # per-shader L1 texture cache  (READ-ONLY) config  {<nsets>:<bsize>:<assoc>,<rep>:<wr>:<alloc>:<wr_alloc>,<mshr>:<N>:<merge>,<mq>:<rf>}
-gpgpu_const_cache:l1 64:64:2,L:R:f:N:L,A:2:32,4 # per-shader L1 constant memory cache  (READ-ONLY) config  {<nsets>:<bsize>:<assoc>,<rep>:<wr>:<alloc>:<wr_alloc>,<mshr>:<N>:<merge>,<mq>} 
-gpgpu_cache:il1     4:128:4,L:R:f:N:L,A:2:32,4 # shader L1 instruction cache config  {<nsets>:<bsize>:<assoc>,<rep>:<wr>:<alloc>:<wr_alloc>,<mshr>:<N>:<merge>,<mq>} 
-gpgpu_cache:dl1     32:128:4,L:L:m:N:H,A:32:8,8:2,0,1:0:1:1:0:1,1:4:8:16:32:64,/sciclone/data10/hwang07/GPU_RESEARCH/swl/swl_outputs/RESULTS/twolevel601/ # per-shader L1 data cache config  {<nsets>:<bsize>:<assoc>,<rep>:<wr>:<alloc>:<wr_alloc>,<mshr>:<N>:<merge>,<mq> | none}
-gpgpu_cache:dl1PrefL1                 none # per-shader L1 data cache config  {<nsets>:<bsize>:<assoc>,<rep>:<wr>:<alloc>:<wr_alloc>,<mshr>:<N>:<merge>,<mq> | none}
-gpgpu_cache:dl1PreShared                 none # per-shader L1 data cache config  {<nsets>:<bsize>:<assoc>,<rep>:<wr>:<alloc>:<wr_alloc>,<mshr>:<N>:<merge>,<mq> | none}
-gmem_skip_L1D                          0 # global memory access skip L1D cache (implements -Xptxas -dlcm=cg, default=no skip)
-gpgpu_perfect_mem                      0 # enable perfect memory mode (no cache miss)
-n_regfile_gating_group                    4 # group of lanes that should be read/written together)
-gpgpu_clock_gated_reg_file                    0 # enable clock gated reg file for power calculations
-gpgpu_clock_gated_lanes                    0 # enable clock gated lanes for power calculations
-gpgpu_shader_registers                32768 # Number of registers per shader core. Limits number of concurrent CTAs. (default 8192)
-gpgpu_shader_cta                       8 # Maximum number of concurrent CTAs in shader (default 8)
-gpgpu_num_cta_barriers                   16 # Maximum number of named barriers per CTA (default 16)
-gpgpu_n_clusters                      15 # number of processing clusters
-gpgpu_n_cores_per_cluster                    1 # number of simd cores per cluster
-gpgpu_n_cluster_ejection_buffer_size                    8 # number of packets in ejection buffer
-gpgpu_n_ldst_response_buffer_size                    2 # number of response packets in ld/st unit ejection buffer
-gpgpu_shmem_size                   16384 # Size of shared memory per shader core (default 16kB)
-gpgpu_shmem_size                   49152 # Size of shared memory per shader core (default 16kB)
-gpgpu_shmem_size_PrefL1                16384 # Size of shared memory per shader core (default 16kB)
-gpgpu_shmem_size_PrefShared                16384 # Size of shared memory per shader core (default 16kB)
-gpgpu_shmem_num_banks                   32 # Number of banks in the shared memory in each shader core (default 16)
-gpgpu_shmem_limited_broadcast                    0 # Limit shared memory to do one broadcast per cycle (default on)
-gpgpu_shmem_warp_parts                    1 # Number of portions a warp is divided into for shared memory bank conflict check 
-gpgpu_warpdistro_shader                   -1 # Specify which shader core to collect the warp size distribution from
-gpgpu_warp_issue_shader                    0 # Specify which shader core to collect the warp issue distribution from
-gpgpu_local_mem_map                    1 # Mapping from local memory space address to simulated GPU physical address space (default = enabled)
-gpgpu_num_reg_banks                   16 # Number of register banks (default = 8)
-gpgpu_reg_bank_use_warp_id                    0 # Use warp ID in mapping registers to banks (default = off)
-gpgpu_operand_collector_num_units_sp                    6 # number of collector units (default = 4)
-gpgpu_operand_collector_num_units_sfu                    8 # number of collector units (default = 4)
-gpgpu_operand_collector_num_units_mem                    2 # number of collector units (default = 2)
-gpgpu_operand_collector_num_units_gen                    0 # number of collector units (default = 0)
-gpgpu_operand_collector_num_in_ports_sp                    2 # number of collector unit in ports (default = 1)
-gpgpu_operand_collector_num_in_ports_sfu                    1 # number of collector unit in ports (default = 1)
-gpgpu_operand_collector_num_in_ports_mem                    1 # number of collector unit in ports (default = 1)
-gpgpu_operand_collector_num_in_ports_gen                    0 # number of collector unit in ports (default = 0)
-gpgpu_operand_collector_num_out_ports_sp                    2 # number of collector unit in ports (default = 1)
-gpgpu_operand_collector_num_out_ports_sfu                    1 # number of collector unit in ports (default = 1)
-gpgpu_operand_collector_num_out_ports_mem                    1 # number of collector unit in ports (default = 1)
-gpgpu_operand_collector_num_out_ports_gen                    0 # number of collector unit in ports (default = 0)
-gpgpu_coalesce_arch                   13 # Coalescing arch (default = 13, anything else is off for now)
-gpgpu_num_sched_per_core                    2 # Number of warp schedulers per core
-gpgpu_max_insn_issue_per_warp                    1 # Max number of instructions that can be issued per warp in one cycle by scheduler
-gpgpu_simt_core_sim_order                    1 # Select the simulation order of cores in a cluster (0=Fix, 1=Round-Robin)
-gpgpu_pipeline_widths        2,1,1,2,1,1,2 # Pipeline widths ID_OC_SP,ID_OC_SFU,ID_OC_MEM,OC_EX_SP,OC_EX_SFU,OC_EX_MEM,EX_WB
-gpgpu_num_sp_units                     2 # Number of SP units (default=1)
-gpgpu_num_sfu_units                    1 # Number of SF units (default=1)
-gpgpu_num_mem_units                    1 # Number if ldst units (default=1) WARNING: not hooked up to anything
-gpgpu_scheduler     two_level_active:6:0:1 # Scheduler configuration: < lrr | gto | two_level_active > If two_level_active:<num_active_warps>:<inner_prioritization>:<outer_prioritization>For complete list of prioritization values see shader.h enum scheduler_prioritization_typeDefault: gto
-gpgpu_dram_scheduler                    1 # 0 = fifo, 1 = FR-FCFS (defaul)
-gpgpu_dram_partition_queues              8:8:8:8 # i2$:$2d:d2$:$2i
-l2_ideal                               0 # Use a ideal L2 cache that always hit
-gpgpu_cache:dl2     64:128:8,L:B:m:W:L,A:32:4,4:0,32 # unified banked L2 data cache config  {<nsets>:<bsize>:<assoc>,<rep>:<wr>:<alloc>:<wr_alloc>,<mshr>:<N>:<merge>,<mq>}
-gpgpu_cache:dl2_texture_only                    0 # L2 cache used for texture only
-gpgpu_n_mem                            6 # number of memory modules (e.g. memory controllers) in gpu
-gpgpu_n_sub_partition_per_mchannel                    2 # number of memory subpartition in each memory module
-gpgpu_n_mem_per_ctrlr                    2 # number of memory chips per memory controller
-gpgpu_memlatency_stat                   14 # track and display latency statistics 0x2 enables MC, 0x4 enables queue logs
-gpgpu_frfcfs_dram_sched_queue_size                   16 # 0 = unlimited (default); # entries per chip
-gpgpu_dram_return_queue_size                  116 # 0 = unlimited (default); # entries per chip
-gpgpu_dram_buswidth                    4 # default = 4 bytes (8 bytes per cycle at DDR)
-gpgpu_dram_burst_length                    8 # Burst length of each DRAM request (default = 4 data bus cycle)
-dram_data_command_freq_ratio                    4 # Frequency ratio between DRAM data bus and command bus (default = 2 times, i.e. DDR)
-gpgpu_dram_timing_opt nbk=16:CCD=2:RRD=6:RCD=12:RAS=28:RP=12:RC=40: CL=12:WL=4:CDLR=5:WR=12:nbkgrp=4:CCDL=3:RTPL=2 # DRAM timing parameters = {nbk:tCCD:tRRD:tRCD:tRAS:tRP:tRC:CL:WL:tCDLR:tWR:nbkgrp:tCCDL:tRTPL}
-rop_latency                          120 # ROP queue latency (default 85)
-dram_latency                         100 # DRAM latency (default 30)
-gpgpu_mem_addr_mapping dramid@8;00000000.00000000.00000000.00000000.0000RRRR.RRRRRRRR.BBBCCCCB.CCSSSSSS # mapping memory address to dram model {dramid@<start bit>;<memory address map>}
-gpgpu_mem_addr_test                    0 # run sweep test to check address mapping for aliased address
-gpgpu_mem_address_mask                    1 # 0 = old addressing mask, 1 = new addressing mask, 2 = new add. mask + flipped bank sel and chip sel bits
-gpuwattch_xml_file  gpuwattch_gtx480.xml # GPUWattch XML file
-power_simulation_enabled                    0 # Turn on power simulator (1=On, 0=Off)
-power_per_cycle_dump                    0 # Dump detailed power output each cycle
-power_trace_enabled                    0 # produce a file for the power trace (1=On, 0=Off)
-power_trace_zlevel                     6 # Compression level of the power trace output log (0=no comp, 9=highest)
-steady_power_levels_enabled                    0 # produce a file for the steady power levels (1=On, 0=Off)
-steady_state_definition                  8:4 # allowed deviation:number of samples
-gpgpu_max_cycle                        0 # terminates gpu simulation early (0 = no limit)
-gpgpu_max_insn                         0 # terminates gpu simulation early (0 = no limit)
-gpgpu_max_cta                          0 # terminates gpu simulation early (0 = no limit)
-gpgpu_runtime_stat                   500 # display runtime statistics such as dram utilization {<freq>:<flag>}
-liveness_message_freq                    1 # Minimum number of seconds between simulation liveness messages (0 = always print)
-gpgpu_flush_l1_cache                    0 # Flush L1 cache at the end of each kernel call
-gpgpu_flush_l2_cache                    0 # Flush L2 cache at the end of each kernel call
-gpgpu_deadlock_detect                    1 # Stop the simulation at deadlock (1=on (default), 0=off)
-gpgpu_ptx_instruction_classification                    0 # if enabled will classify ptx instruction types per kernel (Max 255 kernels now)
-gpgpu_ptx_sim_mode                     0 # Select between Performance (default) or Functional simulation (1)
-gpgpu_clock_domains 700.0:700.0:700.0:924.0 # Clock Domain Frequencies in MhZ {<Core Clock>:<ICNT Clock>:<L2 Clock>:<DRAM Clock>}
-gpgpu_max_concurrent_kernel                    8 # maximum kernels that can run concurrently on GPU
-gpgpu_cflog_interval                    0 # Interval between each snapshot in control flow logger
-visualizer_enabled                     0 # Turn on visualizer output (1=On, 0=Off)
-visualizer_outputfile                 NULL # Specifies the output log file for visualizer
-visualizer_zlevel                      6 # Compression level of the visualizer output log (0=no comp, 9=highest)
-trace_enabled                          0 # Turn on traces
-trace_components                    none # comma seperated list of traces to enable. Complete list found in trace_streams.tup. Default none
-trace_sampling_core                    0 # The core which is printed using CORE_DPRINTF. Default 0
-trace_sampling_memory_partition                   -1 # The memory partition which is printed using MEMPART_DPRINTF. Default -1 (i.e. all)
-enable_ptx_file_line_stats                    1 # Turn on PTX source line statistic profiling. (1 = On)
-ptx_line_stats_filename gpgpu_inst_stats.txt # Output file for PTX source line statistics.
-save_embedded_ptx                      0 # saves ptx files embedded in binary as <n>.ptx
-keep                                   0 # keep intermediate files created by GPGPU-Sim when interfacing with external programs
-gpgpu_ptx_save_converted_ptxplus                    0 # Saved converted ptxplus to a file
-ptx_opcode_latency_int         4,13,4,5,145 # Opcode latencies for integers <ADD,MAX,MUL,MAD,DIV>Default 1,1,19,25,145
-ptx_opcode_latency_fp          4,13,4,5,39 # Opcode latencies for single precision floating points <ADD,MAX,MUL,MAD,DIV>Default 1,1,1,1,30
-ptx_opcode_latency_dp         8,19,8,8,330 # Opcode latencies for double precision floating points <ADD,MAX,MUL,MAD,DIV>Default 8,8,8,8,335
-ptx_opcode_initiation_int            1,2,2,1,8 # Opcode initiation intervals for integers <ADD,MAX,MUL,MAD,DIV>Default 1,1,4,4,32
-ptx_opcode_initiation_fp            1,2,1,1,4 # Opcode initiation intervals for single precision floating points <ADD,MAX,MUL,MAD,DIV>Default 1,1,1,1,5
-ptx_opcode_initiation_dp         8,16,8,8,130 # Opcode initiation intervals for double precision floating points <ADD,MAX,MUL,MAD,DIV>Default 8,8,8,8,130
DRAM Timing Options:
nbk                                    16 # number of banks
CCD                                     2 # column to column delay
RRD                                     6 # minimal delay between activation of rows in different banks
RCD                                    12 # row to column delay
RAS                                    28 # time needed to activate row
RP                                     12 # time needed to precharge (deactivate) row
RC                                     40 # row cycle time
CDLR                                    5 # switching from write to read (changes tWTR)
WR                                     12 # last data-in to row precharge
CL                                     12 # CAS latency
WL                                      4 # Write latency
nbkgrp                                  4 # number of bank groups
CCDL                                    3 # column to column delay between accesses to different bank groups
RTPL                                    2 # read to precharge delay between accesses to different bank groups
Total number of memory sub partition = 12
addr_dec_mask[CHIP]  = 0000000000000000 	high:64 low:0
addr_dec_mask[BK]    = 000000000000e100 	high:16 low:8
addr_dec_mask[ROW]   = 000000000fff0000 	high:28 low:16
addr_dec_mask[COL]   = 0000000000001eff 	high:13 low:0
addr_dec_mask[BURST] = 000000000000003f 	high:6 low:0
sub_partition_id_mask = 0000000000000100
GPGPU-Sim uArch: clock freqs: 700000000.000000:700000000.000000:700000000.000000:924000000.000000
GPGPU-Sim uArch: clock periods: 0.00000000142857142857:0.00000000142857142857:0.00000000142857142857:0.00000000108225108225
*** Initializing Memory Statistics ***
GPGPU-Sim uArch: interconnect node map (shaderID+MemID to icntID)
GPGPU-Sim uArch: Memory nodes ID start from index: 15
GPGPU-Sim uArch:    0   1   2   3   4
GPGPU-Sim uArch:    5   6   7   8   9
GPGPU-Sim uArch:   10  11  12  13  14
GPGPU-Sim uArch:   15  16  17  18  19
GPGPU-Sim uArch:   20  21  22  23  24
GPGPU-Sim uArch:   25  26
GPGPU-Sim uArch: interconnect node reverse map (icntID to shaderID+MemID)
GPGPU-Sim uArch: Memory nodes start from ID: 15
GPGPU-Sim uArch:    0   1   2   3   4
GPGPU-Sim uArch:    5   6   7   8   9
GPGPU-Sim uArch:   10  11  12  13  14
GPGPU-Sim uArch:   15  16  17  18  19
GPGPU-Sim uArch:   20  21  22  23  24
GPGPU-Sim uArch:   25  26
67265a35928c1e7333fb90cd2f70e437  /sciclone/data10/hwang07/adwait/applications/benchmarks/CUDA/STO/gpgpu_ptx_sim__STO
GPGPU-Sim uArch: performance model initialization complete.
GPGPU-Sim PTX: __cudaRegisterFatBinary, fat_cubin_handle = 1, filename=storeGPU.cu
self exe links to: /sciclone/data10/hwang07/adwait/applications/benchmarks/CUDA/STO/gpgpu_ptx_sim__STO
Running md5sum using "md5sum /sciclone/data10/hwang07/adwait/applications/benchmarks/CUDA/STO/gpgpu_ptx_sim__STO "
Parsing file _cuobjdump_complete_output_iGC9mb
######### cuobjdump parser ########
## Adding new section ELF
Adding arch: sm_20
Adding identifier: main.cu
## Adding new section PTX
Adding ptx filename: _cuobjdump_1.ptx
Adding arch: sm_20
Adding identifier: main.cu
## Adding new section ELF
Adding arch: sm_20
Adding identifier: storeGPU.cu
## Adding new section PTX
Adding ptx filename: _cuobjdump_2.ptx
Adding arch: sm_20
Adding identifier: storeGPU.cu
Done parsing!!!
GPGPU-Sim PTX: __cudaRegisterFunction _Z12sha1_overlapPhiiiiS_ : hostFun 0x0x40dfd2, fat_cubin_handle = 1
GPGPU-Sim PTX: allocating stack frame region for .param "__cudaretf__Z14macroRFunctioniPj" from 0x0 to 0x8
GPGPU-Sim PTX: allocating stack frame region for .param "__cudaparmf1__Z14macroRFunctioniPj" from 0x8 to 0xc
GPGPU-Sim PTX: allocating stack frame region for .param "__cudaparmf2__Z14macroRFunctioniPj" from 0xc to 0x14
GPGPU-Sim PTX: instruction assembly for function '_Z14macroRFunctioniPj'...   done.
GPGPU-Sim PTX: finding reconvergence points for '_Z14macroRFunctioniPj'...
GPGPU-Sim PTX: Finding dominators for '_Z14macroRFunctioniPj'...
GPGPU-Sim PTX: Finding immediate dominators for '_Z14macroRFunctioniPj'...
GPGPU-Sim PTX: Finding postdominators for '_Z14macroRFunctioniPj'...
GPGPU-Sim PTX: Finding immediate postdominators for '_Z14macroRFunctioniPj'...
GPGPU-Sim PTX: pre-decoding instructions for '_Z14macroRFunctioniPj'...
GPGPU-Sim PTX: reconvergence points for _Z14macroRFunctioniPj...
GPGPU-Sim PTX: ... end of reconvergence points for _Z14macroRFunctioniPj
GPGPU-Sim PTX: ... done pre-decoding instructions for '_Z14macroRFunctioniPj'.
GPGPU-Sim PTX: allocating shared region for "__cuda___cuda_local_var_34843_40_non_const_sharedMemory32" from 0x0 to 0x3f80 (shared memory space)
GPGPU-Sim PTX: instruction assembly for function '_Z3md5PhiiiS_'...   done.
GPGPU-Sim PTX: finding reconvergence points for '_Z3md5PhiiiS_'...
GPGPU-Sim PTX: Finding dominators for '_Z3md5PhiiiS_'...
GPGPU-Sim PTX: Finding immediate dominators for '_Z3md5PhiiiS_'...
GPGPU-Sim PTX: Finding postdominators for '_Z3md5PhiiiS_'...
GPGPU-Sim PTX: Finding immediate postdominators for '_Z3md5PhiiiS_'...
GPGPU-Sim PTX: pre-decoding instructions for '_Z3md5PhiiiS_'...
GPGPU-Sim PTX: reconvergence points for _Z3md5PhiiiS_...
GPGPU-Sim PTX:  1 (potential) branch divergence @  PC=0x190 (_1.ptx:127) @%p1 bra $Lt_1_4866;
GPGPU-Sim PTX:    immediate post dominator      @  PC=0x21f0 (_1.ptx:1283) exit;
GPGPU-Sim PTX:  2 (potential) branch divergence @  PC=0x198 (_1.ptx:128) bra.uni $LBB20__Z3md5PhiiiS_;
GPGPU-Sim PTX:    immediate post dominator      @  PC=0x21f0 (_1.ptx:1283) exit;
GPGPU-Sim PTX:  3 (potential) branch divergence @  PC=0x1f0 (_1.ptx:141) @%p3 bra $Lt_1_5634;
GPGPU-Sim PTX:    immediate post dominator      @  PC=0x290 (_1.ptx:167) shr.s32 %r23, %r15, 31;
GPGPU-Sim PTX:  4 (potential) branch divergence @  PC=0x200 (_1.ptx:143) @!%p2 bra $Lt_1_5378;
GPGPU-Sim PTX:    immediate post dominator      @  PC=0x290 (_1.ptx:167) shr.s32 %r23, %r15, 31;
GPGPU-Sim PTX:  5 (potential) branch divergence @  PC=0x278 (_1.ptx:161) @%p4 bra $Lt_1_6402;
GPGPU-Sim PTX:    immediate post dominator      @  PC=0x280 (_1.ptx:162) bra.uni $Lt_1_5378;
GPGPU-Sim PTX:  6 (potential) branch divergence @  PC=0x280 (_1.ptx:162) bra.uni $Lt_1_5378;
GPGPU-Sim PTX:    immediate post dominator      @  PC=0x290 (_1.ptx:167) shr.s32 %r23, %r15, 31;
GPGPU-Sim PTX:  7 (potential) branch divergence @  PC=0x2d0 (_1.ptx:175) @%p5 bra $Lt_1_8706;
GPGPU-Sim PTX:    immediate post dominator      @  PC=0x2198 (_1.ptx:1270) mul.lo.s32 %r234, %r5, 4;
GPGPU-Sim PTX:  8 (potential) branch divergence @  PC=0x4e8 (_1.ptx:257) @%p6 bra $Lt_1_7938;
GPGPU-Sim PTX:    immediate post dominator      @  PC=0x560 (_1.ptx:281) ld.shared.u8 %r69, [%rd20+0];
GPGPU-Sim PTX:  9 (potential) branch divergence @  PC=0x520 (_1.ptx:267) bra.uni $Lt_1_7682;
GPGPU-Sim PTX:    immediate post dominator      @  PC=0x560 (_1.ptx:281) ld.shared.u8 %r69, [%rd20+0];
GPGPU-Sim PTX: 10 (potential) branch divergence @  PC=0x2180 (_1.ptx:1264) @%p7 bra $Lt_1_7426;
GPGPU-Sim PTX:    immediate post dominator      @  PC=0x2188 (_1.ptx:1265) bra.uni $Lt_1_6914;
GPGPU-Sim PTX: 11 (potential) branch divergence @  PC=0x2188 (_1.ptx:1265) bra.uni $Lt_1_6914;
GPGPU-Sim PTX:    immediate post dominator      @  PC=0x2198 (_1.ptx:1270) mul.lo.s32 %r234, %r5, 4;
GPGPU-Sim PTX: ... end of reconvergence points for _Z3md5PhiiiS_
GPGPU-Sim PTX: ... done pre-decoding instructions for '_Z3md5PhiiiS_'.
GPGPU-Sim PTX: allocating shared region for "__cuda___cuda_local_var_34878_40_non_const_sharedMemory16320" from 0x0 to 0x3f80 (shared memory space)
GPGPU-Sim PTX: instruction assembly for function '_Z11md5_overlapPhiiiiS_'...   done.
GPGPU-Sim PTX: finding reconvergence points for '_Z11md5_overlapPhiiiiS_'...
GPGPU-Sim PTX: Finding dominators for '_Z11md5_overlapPhiiiiS_'...
GPGPU-Sim PTX: Finding immediate dominators for '_Z11md5_overlapPhiiiiS_'...
GPGPU-Sim PTX: Finding postdominators for '_Z11md5_overlapPhiiiiS_'...
GPGPU-Sim PTX: Finding immediate postdominators for '_Z11md5_overlapPhiiiiS_'...
GPGPU-Sim PTX: pre-decoding instructions for '_Z11md5_overlapPhiiiiS_'...
GPGPU-Sim PTX: reconvergence points for _Z11md5_overlapPhiiiiS_...
GPGPU-Sim PTX:  1 (potential) branch divergence @  PC=0x2230 (_1.ptx:1308) @%p1 bra $Lt_2_5634;
GPGPU-Sim PTX:    immediate post dominator      @  PC=0x43e8 (_1.ptx:2510) exit;
GPGPU-Sim PTX:  2 (potential) branch divergence @  PC=0x2238 (_1.ptx:1309) bra.uni $LBB23__Z11md5_overlapPhiiiiS_;
GPGPU-Sim PTX:    immediate post dominator      @  PC=0x43e8 (_1.ptx:2510) exit;
GPGPU-Sim PTX:  3 (potential) branch divergence @  PC=0x22b0 (_1.ptx:1326) @%p3 bra $Lt_2_9730;
GPGPU-Sim PTX:    immediate post dominator      @  PC=0x4390 (_1.ptx:2497) mul.lo.s32 %r260, %r5, 4;
GPGPU-Sim PTX:  4 (potential) branch divergence @  PC=0x2440 (_1.ptx:1378) @%p4 bra $Lt_2_7170;
GPGPU-Sim PTX:    immediate post dominator      @  PC=0x2768 (_1.ptx:1510) ld.shared.u8 %r95, [%rd15+0];
GPGPU-Sim PTX:  5 (potential) branch divergence @  PC=0x2488 (_1.ptx:1387) @%p5 bra $Lt_2_9986;
GPGPU-Sim PTX:    immediate post dominator      @  PC=0x2520 (_1.ptx:1411) mov.s32 %r62, 13;
GPGPU-Sim PTX:  6 (potential) branch divergence @  PC=0x2500 (_1.ptx:1405) @%p6 bra $Lt_2_7938;
GPGPU-Sim PTX:    immediate post dominator      @  PC=0x2508 (_1.ptx:1406) mov.s32 %r61, %r52;
GPGPU-Sim PTX:  7 (potential) branch divergence @  PC=0x2510 (_1.ptx:1407) bra.uni $Lt_2_7426;
GPGPU-Sim PTX:    immediate post dominator      @  PC=0x2520 (_1.ptx:1411) mov.s32 %r62, 13;
GPGPU-Sim PTX:  8 (potential) branch divergence @  PC=0x2540 (_1.ptx:1415) @%p7 bra $Lt_2_8450;
GPGPU-Sim PTX:    immediate post dominator      @  PC=0x25e0 (_1.ptx:1440) mov.u32 %r72, 128;
GPGPU-Sim PTX:  9 (potential) branch divergence @  PC=0x25d8 (_1.ptx:1437) @%p8 bra $Lt_2_8962;
GPGPU-Sim PTX:    immediate post dominator      @  PC=0x25e0 (_1.ptx:1440) mov.u32 %r72, 128;
GPGPU-Sim PTX: 10 (potential) branch divergence @  PC=0x2640 (_1.ptx:1454) bra.uni $Lt_2_6914;
GPGPU-Sim PTX:    immediate post dominator      @  PC=0x2768 (_1.ptx:1510) ld.shared.u8 %r95, [%rd15+0];
GPGPU-Sim PTX: 11 (potential) branch divergence @  PC=0x4378 (_1.ptx:2491) @%p9 bra $Lt_2_6658;
GPGPU-Sim PTX:    immediate post dominator      @  PC=0x4380 (_1.ptx:2492) bra.uni $Lt_2_6146;
GPGPU-Sim PTX: 12 (potential) branch divergence @  PC=0x4380 (_1.ptx:2492) bra.uni $Lt_2_6146;
GPGPU-Sim PTX:    immediate post dominator      @  PC=0x4390 (_1.ptx:2497) mul.lo.s32 %r260, %r5, 4;
GPGPU-Sim PTX: ... end of reconvergence points for _Z11md5_overlapPhiiiiS_
GPGPU-Sim PTX: ... done pre-decoding instructions for '_Z11md5_overlapPhiiiiS_'.
GPGPU-Sim PTX: allocating shared region for "__cuda___cuda_local_var_35732_40_non_const_sharedMemory32608" from 0x0 to 0x3f80 (shared memory space)
GPGPU-Sim PTX: instruction assembly for function '_Z4sha1PhiiiS_'...   done.
GPGPU-Sim PTX: finding reconvergence points for '_Z4sha1PhiiiS_'...
GPGPU-Sim PTX: Finding dominators for '_Z4sha1PhiiiS_'...
GPGPU-Sim PTX: Finding immediate dominators for '_Z4sha1PhiiiS_'...
GPGPU-Sim PTX: Finding postdominators for '_Z4sha1PhiiiS_'...
GPGPU-Sim PTX: Finding immediate postdominators for '_Z4sha1PhiiiS_'...
GPGPU-Sim PTX: pre-decoding instructions for '_Z4sha1PhiiiS_'...
GPGPU-Sim PTX: reconvergence points for _Z4sha1PhiiiS_...
GPGPU-Sim PTX:  1 (potential) branch divergence @  PC=0x4428 (_1.ptx:2534) @%p1 bra $Lt_3_4866;
GPGPU-Sim PTX:    immediate post dominator      @  PC=0x9018 (_1.ptx:5165) exit;
GPGPU-Sim PTX:  2 (potential) branch divergence @  PC=0x4430 (_1.ptx:2535) bra.uni $LBB20__Z4sha1PhiiiS_;
GPGPU-Sim PTX:    immediate post dominator      @  PC=0x9018 (_1.ptx:5165) exit;
GPGPU-Sim PTX:  3 (potential) branch divergence @  PC=0x4488 (_1.ptx:2548) @%p3 bra $Lt_3_5634;
GPGPU-Sim PTX:    immediate post dominator      @  PC=0x4528 (_1.ptx:2574) shr.u32 %r23, %r15, 6;
GPGPU-Sim PTX:  4 (potential) branch divergence @  PC=0x4498 (_1.ptx:2550) @!%p2 bra $Lt_3_5378;
GPGPU-Sim PTX:    immediate post dominator      @  PC=0x4528 (_1.ptx:2574) shr.u32 %r23, %r15, 6;
GPGPU-Sim PTX:  5 (potential) branch divergence @  PC=0x4510 (_1.ptx:2568) @%p4 bra $Lt_3_6402;
GPGPU-Sim PTX:    immediate post dominator      @  PC=0x4518 (_1.ptx:2569) bra.uni $Lt_3_5378;
GPGPU-Sim PTX:  6 (potential) branch divergence @  PC=0x4518 (_1.ptx:2569) bra.uni $Lt_3_5378;
GPGPU-Sim PTX:    immediate post dominator      @  PC=0x4528 (_1.ptx:2574) shr.u32 %r23, %r15, 6;
GPGPU-Sim PTX:  7 (potential) branch divergence @  PC=0x4548 (_1.ptx:2578) @%p5 bra $Lt_3_8706;
GPGPU-Sim PTX:    immediate post dominator      @  PC=0x8fc0 (_1.ptx:5152) mul.lo.s32 %r748, %r5, 4;
GPGPU-Sim PTX:  8 (potential) branch divergence @  PC=0x4730 (_1.ptx:2654) @%p6 bra $Lt_3_7938;
GPGPU-Sim PTX:    immediate post dominator      @  PC=0x4820 (_1.ptx:2693) ld.shared.u8 %r69, [%rd21+3];
GPGPU-Sim PTX:  9 (potential) branch divergence @  PC=0x47e0 (_1.ptx:2679) bra.uni $Lt_3_7682;
GPGPU-Sim PTX:    immediate post dominator      @  PC=0x4820 (_1.ptx:2693) ld.shared.u8 %r69, [%rd21+3];
GPGPU-Sim PTX: 10 (potential) branch divergence @  PC=0x8fa8 (_1.ptx:5146) @%p7 bra $Lt_3_7426;
GPGPU-Sim PTX:    immediate post dominator      @  PC=0x8fb0 (_1.ptx:5147) bra.uni $Lt_3_6914;
GPGPU-Sim PTX: 11 (potential) branch divergence @  PC=0x8fb0 (_1.ptx:5147) bra.uni $Lt_3_6914;
GPGPU-Sim PTX:    immediate post dominator      @  PC=0x8fc0 (_1.ptx:5152) mul.lo.s32 %r748, %r5, 4;
GPGPU-Sim PTX: ... end of reconvergence points for _Z4sha1PhiiiS_
GPGPU-Sim PTX: ... done pre-decoding instructions for '_Z4sha1PhiiiS_'.
GPGPU-Sim PTX: allocating shared region for "__cuda___cuda_local_var_35764_40_non_const_sharedMemory48896" from 0x0 to 0x3f80 (shared memory space)
GPGPU-Sim PTX: instruction assembly for function '_Z12sha1_overlapPhiiiiS_'...   done.
GPGPU-Sim PTX: finding reconvergence points for '_Z12sha1_overlapPhiiiiS_'...
GPGPU-Sim PTX: Finding dominators for '_Z12sha1_overlapPhiiiiS_'...
GPGPU-Sim PTX: Finding immediate dominators for '_Z12sha1_overlapPhiiiiS_'...
GPGPU-Sim PTX: Finding postdominators for '_Z12sha1_overlapPhiiiiS_'...
GPGPU-Sim PTX: Finding immediate postdominators for '_Z12sha1_overlapPhiiiiS_'...
GPGPU-Sim PTX: pre-decoding instructions for '_Z12sha1_overlapPhiiiiS_'...
GPGPU-Sim PTX: reconvergence points for _Z12sha1_overlapPhiiiiS_...
GPGPU-Sim PTX:  1 (potential) branch divergence @  PC=0x9058 (_1.ptx:5190) @%p1 bra $Lt_4_5634;
GPGPU-Sim PTX:    immediate post dominator      @  PC=0xde28 (_1.ptx:7884) exit;
GPGPU-Sim PTX:  2 (potential) branch divergence @  PC=0x9060 (_1.ptx:5191) bra.uni $LBB23__Z12sha1_overlapPhiiiiS_;
GPGPU-Sim PTX:    immediate post dominator      @  PC=0xde28 (_1.ptx:7884) exit;
GPGPU-Sim PTX:  3 (potential) branch divergence @  PC=0x90b8 (_1.ptx:5204) @%p3 bra $Lt_4_9730;
GPGPU-Sim PTX:    immediate post dominator      @  PC=0xddd0 (_1.ptx:7871) mul.lo.s32 %r783, %r5, 4;
GPGPU-Sim PTX:  4 (potential) branch divergence @  PC=0x9288 (_1.ptx:5264) @%p4 bra $Lt_4_7170;
GPGPU-Sim PTX:    immediate post dominator      @  PC=0x9628 (_1.ptx:5411) ld.shared.u8 %r101, [%rd15+3];
GPGPU-Sim PTX:  5 (potential) branch divergence @  PC=0x92d0 (_1.ptx:5273) @%p5 bra $Lt_4_9986;
GPGPU-Sim PTX:    immediate post dominator      @  PC=0x9368 (_1.ptx:5297) mov.s32 %r59, 13;
GPGPU-Sim PTX:  6 (potential) branch divergence @  PC=0x9348 (_1.ptx:5291) @%p6 bra $Lt_4_7938;
GPGPU-Sim PTX:    immediate post dominator      @  PC=0x9350 (_1.ptx:5292) mov.s32 %r58, %r49;
GPGPU-Sim PTX:  7 (potential) branch divergence @  PC=0x9358 (_1.ptx:5293) bra.uni $Lt_4_7426;
GPGPU-Sim PTX:    immediate post dominator      @  PC=0x9368 (_1.ptx:5297) mov.s32 %r59, 13;
GPGPU-Sim PTX:  8 (potential) branch divergence @  PC=0x9388 (_1.ptx:5301) @%p7 bra $Lt_4_8450;
GPGPU-Sim PTX:    immediate post dominator      @  PC=0x9428 (_1.ptx:5326) mov.u32 %r69, 128;
GPGPU-Sim PTX:  9 (potential) branch divergence @  PC=0x9420 (_1.ptx:5323) @%p8 bra $Lt_4_8962;
GPGPU-Sim PTX:    immediate post dominator      @  PC=0x9428 (_1.ptx:5326) mov.u32 %r69, 128;
GPGPU-Sim PTX: 10 (potential) branch divergence @  PC=0x9500 (_1.ptx:5355) bra.uni $Lt_4_6914;
GPGPU-Sim PTX:    immediate post dominator      @  PC=0x9628 (_1.ptx:5411) ld.shared.u8 %r101, [%rd15+3];
GPGPU-Sim PTX: 11 (potential) branch divergence @  PC=0xddb8 (_1.ptx:7865) @%p9 bra $Lt_4_6658;
GPGPU-Sim PTX:    immediate post dominator      @  PC=0xddc0 (_1.ptx:7866) bra.uni $Lt_4_6146;
GPGPU-Sim PTX: 12 (potential) branch divergence @  PC=0xddc0 (_1.ptx:7866) bra.uni $Lt_4_6146;
GPGPU-Sim PTX:    immediate post dominator      @  PC=0xddd0 (_1.ptx:7871) mul.lo.s32 %r783, %r5, 4;
GPGPU-Sim PTX: ... end of reconvergence points for _Z12sha1_overlapPhiiiiS_
GPGPU-Sim PTX: ... done pre-decoding instructions for '_Z12sha1_overlapPhiiiiS_'.
GPGPU-Sim PTX: allocating global region for "md5_padding" from 0x100 to 0x140 (global memory space)
GPGPU-Sim PTX: allocating global region for "sha1_padding" from 0x140 to 0x180 (global memory space)
GPGPU-Sim PTX: finished parsing EMBEDDED .ptx file _1.ptx
Adding _cuobjdump_2.ptx with cubin handle 1
GPGPU-Sim PTX: extracting embedded .ptx to temporary file "_ptx_j35cHm"
Running: cat _ptx_j35cHm | sed 's/.version 1.5/.version 1.4/' | sed 's/, texmode_independent//' | sed 's/\(\.extern \.const\[1\] .b8 \w\+\)\[\]/\1\[1\]/' | sed 's/const\[.\]/const\[0\]/g' > _ptx2_FpdWcz
GPGPU-Sim PTX: generating ptxinfo using "$CUDA_INSTALL_PATH/bin/ptxas --gpu-name=sm_20 -v _ptx2_FpdWcz --output-file  /dev/null 2> _ptx_j35cHminfo"
GPGPU-Sim PTX: Kernel '_Z12sha1_overlapPhiiiiS_' : regs=47, lmem=0, smem=16256, cmem=80
GPGPU-Sim PTX: Kernel '_Z4sha1PhiiiS_' : regs=45, lmem=0, smem=16256, cmem=80
GPGPU-Sim PTX: Kernel '_Z11md5_overlapPhiiiiS_' : regs=42, lmem=0, smem=16256, cmem=80
GPGPU-Sim PTX: Kernel '_Z3md5PhiiiS_' : regs=42, lmem=0, smem=16256, cmem=80
GPGPU-Sim PTX: removing ptxinfo using "rm -f _ptx_j35cHm _ptx2_FpdWcz _ptx_j35cHminfo"
GPGPU-Sim PTX: loading globals with explicit initializers... 
GPGPU-Sim PTX:     initializing 'md5_padding' ...  wrote 64 bytes
GPGPU-Sim PTX:     initializing 'sha1_padding' ...  wrote 64 bytes
GPGPU-Sim PTX: finished loading globals (128 bytes total).
GPGPU-Sim PTX: loading constants with explicit initializers...  done.
GPGPU-Sim PTX: __cudaRegisterFunction _Z4sha1PhiiiS_ : hostFun 0x0x40de87, fat_cubin_handle = 1
GPGPU-Sim PTX: __cudaRegisterFunction _Z11md5_overlapPhiiiiS_ : hostFun 0x0x40dd5c, fat_cubin_handle = 1
GPGPU-Sim PTX: __cudaRegisterFunction _Z3md5PhiiiS_ : hostFun 0x0x40dc11, fat_cubin_handle = 1
GPGPU-Sim PTX: __cudaRegisterVar: hostVar = 0x668920; deviceAddress = md5_padding; deviceName = md5_padding
GPGPU-Sim PTX: __cudaRegisterVar: Registering const memory space of 64 bytes
GPGPU-Sim PTX registering global md5_padding hostVar to name mapping
GPGPU-Sim PTX: __cudaRegisterVar: hostVar = 0x668960; deviceAddress = sha1_padding; deviceName = sha1_padding
GPGPU-Sim PTX: __cudaRegisterVar: Registering const memory space of 64 bytes
GPGPU-Sim PTX registering global sha1_padding hostVar to name mapping
GPGPU-Sim PTX: __cudaRegisterFatBinary, fat_cubin_handle = 2, filename=main.cu
Shared Memory Enabled
Pinned Memory Enabled
Reduced Hash Size Enabled
Running SHA1 Overlap Test..
SHA1 Overlap Test


== GPU Execution Context ==
Threads       : 128
Blocks        : 384
Total Threads : 49152
Total size    : 196656
Chunk Size    : 52
Padding       : 0


GPGPU-Sim PTX: cudaLaunch for 0x0x40dfd2 (mode=performance simulation) on stream 0
GPGPU-Sim PTX: pushing kernel '_Z12sha1_overlapPhiiiiS_' to stream 0, gridDim= (384,1,1) blockDim = (128,1,1) 
kernel '_Z12sha1_overlapPhiiiiS_' transfer to GPU hardware scheduler
GPGPU-Sim uArch: Shader 1 bind to kernel 1 '_Z12sha1_overlapPhiiiiS_'
GPGPU-Sim uArch: CTA/core = 3, limited by: shmem
GPGPU-Sim uArch: core:  1, cta: 0 initialized @(1,0)
GPGPU-Sim uArch: Shader 2 bind to kernel 1 '_Z12sha1_overlapPhiiiiS_'
GPGPU-Sim uArch: core:  2, cta: 0 initialized @(1,0)
GPGPU-Sim uArch: Shader 3 bind to kernel 1 '_Z12sha1_overlapPhiiiiS_'
GPGPU-Sim uArch: core:  3, cta: 0 initialized @(1,0)
GPGPU-Sim uArch: Shader 4 bind to kernel 1 '_Z12sha1_overlapPhiiiiS_'
GPGPU-Sim uArch: core:  4, cta: 0 initialized @(1,0)
GPGPU-Sim uArch: Shader 5 bind to kernel 1 '_Z12sha1_overlapPhiiiiS_'
GPGPU-Sim uArch: core:  5, cta: 0 initialized @(1,0)
GPGPU-Sim uArch: Shader 6 bind to kernel 1 '_Z12sha1_overlapPhiiiiS_'
GPGPU-Sim uArch: core:  6, cta: 0 initialized @(1,0)
GPGPU-Sim uArch: Shader 7 bind to kernel 1 '_Z12sha1_overlapPhiiiiS_'
GPGPU-Sim uArch: core:  7, cta: 0 initialized @(1,0)
GPGPU-Sim uArch: Shader 8 bind to kernel 1 '_Z12sha1_overlapPhiiiiS_'
GPGPU-Sim uArch: core:  8, cta: 0 initialized @(1,0)
GPGPU-Sim uArch: Shader 9 bind to kernel 1 '_Z12sha1_overlapPhiiiiS_'
GPGPU-Sim uArch: core:  9, cta: 0 initialized @(1,0)
GPGPU-Sim uArch: Shader 10 bind to kernel 1 '_Z12sha1_overlapPhiiiiS_'
GPGPU-Sim uArch: core: 10, cta: 0 initialized @(1,0)
GPGPU-Sim uArch: Shader 11 bind to kernel 1 '_Z12sha1_overlapPhiiiiS_'
GPGPU-Sim uArch: core: 11, cta: 0 initialized @(1,0)
GPGPU-Sim uArch: Shader 12 bind to kernel 1 '_Z12sha1_overlapPhiiiiS_'
GPGPU-Sim uArch: core: 12, cta: 0 initialized @(1,0)
GPGPU-Sim uArch: Shader 13 bind to kernel 1 '_Z12sha1_overlapPhiiiiS_'
GPGPU-Sim uArch: core: 13, cta: 0 initialized @(1,0)
GPGPU-Sim uArch: Shader 14 bind to kernel 1 '_Z12sha1_overlapPhiiiiS_'
GPGPU-Sim uArch: core: 14, cta: 0 initialized @(1,0)
GPGPU-Sim uArch: Shader 0 bind to kernel 1 '_Z12sha1_overlapPhiiiiS_'
GPGPU-Sim uArch: core:  0, cta: 0 initialized @(1,0)
GPGPU-Sim uArch: core:  1, cta: 1 initialized @(2,0)
GPGPU-Sim uArch: core:  2, cta: 1 initialized @(2,0)
GPGPU-Sim uArch: core:  3, cta: 1 initialized @(2,0)
GPGPU-Sim uArch: core:  4, cta: 1 initialized @(2,0)
GPGPU-Sim uArch: core:  5, cta: 1 initialized @(2,0)
GPGPU-Sim uArch: core:  6, cta: 1 initialized @(2,0)
GPGPU-Sim uArch: core:  7, cta: 1 initialized @(2,0)
GPGPU-Sim uArch: core:  8, cta: 1 initialized @(2,0)
GPGPU-Sim uArch: core:  9, cta: 1 initialized @(2,0)
GPGPU-Sim uArch: core: 10, cta: 1 initialized @(2,0)
GPGPU-Sim uArch: core: 11, cta: 1 initialized @(2,0)
GPGPU-Sim uArch: core: 12, cta: 1 initialized @(2,0)
GPGPU-Sim uArch: core: 13, cta: 1 initialized @(2,0)
GPGPU-Sim uArch: core: 14, cta: 1 initialized @(2,0)
GPGPU-Sim uArch: core:  0, cta: 1 initialized @(2,0)
GPGPU-Sim uArch: core:  1, cta: 2 initialized @(3,0)
GPGPU-Sim uArch: core:  2, cta: 2 initialized @(3,0)
GPGPU-Sim uArch: core:  3, cta: 2 initialized @(3,0)
GPGPU-Sim uArch: core:  4, cta: 2 initialized @(3,0)
GPGPU-Sim uArch: core:  5, cta: 2 initialized @(3,0)
GPGPU-Sim uArch: core:  6, cta: 2 initialized @(3,0)
GPGPU-Sim uArch: core:  7, cta: 2 initialized @(3,0)
GPGPU-Sim uArch: core:  8, cta: 2 initialized @(3,0)
GPGPU-Sim uArch: core:  9, cta: 2 initialized @(3,0)
GPGPU-Sim uArch: core: 10, cta: 2 initialized @(3,0)
GPGPU-Sim uArch: core: 11, cta: 2 initialized @(3,0)
GPGPU-Sim uArch: core: 12, cta: 2 initialized @(3,0)
GPGPU-Sim uArch: core: 13, cta: 2 initialized @(3,0)
GPGPU-Sim uArch: core: 14, cta: 2 initialized @(3,0)
GPGPU-Sim uArch: core:  0, cta: 2 initialized @(3,0)
GPGPU-Sim uArch: cycles simulated: 500  inst.: 28800 (ipc=57.6) sim_rate=9600 (inst/sec) elapsed = 0:0:00:03 / Tue Mar 22 13:09:03 2016
GPGPU-Sim PTX: 100000 instructions simulated : ctaid=(7,0,0) tid=(127,0,0)
GPGPU-Sim PTX: 200000 instructions simulated : ctaid=(24,0,0) tid=(31,0,0)
GPGPU-Sim uArch: cycles simulated: 1500  inst.: 247680 (ipc=165.1) sim_rate=61920 (inst/sec) elapsed = 0:0:00:04 / Tue Mar 22 13:09:04 2016
GPGPU-Sim PTX: 300000 instructions simulated : ctaid=(38,0,0) tid=(127,0,0)
GPGPU-Sim PTX: 400000 instructions simulated : ctaid=(19,0,0) tid=(127,0,0)
GPGPU-Sim PTX: 500000 instructions simulated : ctaid=(0,0,0) tid=(63,0,0)
GPGPU-Sim PTX: 600000 instructions simulated : ctaid=(7,0,0) tid=(95,0,0)
GPGPU-Sim uArch: cycles simulated: 3500  inst.: 631168 (ipc=180.3) sim_rate=126233 (inst/sec) elapsed = 0:0:00:05 / Tue Mar 22 13:09:05 2016
GPGPU-Sim PTX: 700000 instructions simulated : ctaid=(18,0,0) tid=(31,0,0)
GPGPU-Sim PTX: 800000 instructions simulated : ctaid=(4,0,0) tid=(31,0,0)
GPGPU-Sim PTX: 900000 instructions simulated : ctaid=(18,0,0) tid=(95,0,0)
GPGPU-Sim PTX: 1000000 instructions simulated : ctaid=(5,0,0) tid=(31,0,0)
GPGPU-Sim uArch: cycles simulated: 4000  inst.: 986400 (ipc=246.6) sim_rate=164400 (inst/sec) elapsed = 0:0:00:06 / Tue Mar 22 13:09:06 2016
GPGPU-Sim PTX: 1100000 instructions simulated : ctaid=(7,0,0) tid=(95,0,0)
GPGPU-Sim PTX: 1200000 instructions simulated : ctaid=(29,0,0) tid=(127,0,0)
GPGPU-Sim PTX: 1300000 instructions simulated : ctaid=(23,0,0) tid=(63,0,0)
GPGPU-Sim uArch: cycles simulated: 4500  inst.: 1342976 (ipc=298.4) sim_rate=191853 (inst/sec) elapsed = 0:0:00:07 / Tue Mar 22 13:09:07 2016
GPGPU-Sim PTX: 1400000 instructions simulated : ctaid=(24,0,0) tid=(127,0,0)
GPGPU-Sim PTX: 1500000 instructions simulated : ctaid=(1,0,0) tid=(95,0,0)
GPGPU-Sim PTX: 1600000 instructions simulated : ctaid=(42,0,0) tid=(31,0,0)
GPGPU-Sim uArch: cycles simulated: 6000  inst.: 1636256 (ipc=272.7) sim_rate=204532 (inst/sec) elapsed = 0:0:00:08 / Tue Mar 22 13:09:08 2016
GPGPU-Sim PTX: 1700000 instructions simulated : ctaid=(19,0,0) tid=(63,0,0)
GPGPU-Sim PTX: 1800000 instructions simulated : ctaid=(21,0,0) tid=(127,0,0)
GPGPU-Sim PTX: 1900000 instructions simulated : ctaid=(35,0,0) tid=(127,0,0)
GPGPU-Sim uArch: cycles simulated: 7000  inst.: 1906560 (ipc=272.4) sim_rate=211840 (inst/sec) elapsed = 0:0:00:09 / Tue Mar 22 13:09:09 2016
GPGPU-Sim PTX: 2000000 instructions simulated : ctaid=(41,0,0) tid=(63,0,0)
GPGPU-Sim PTX: 2100000 instructions simulated : ctaid=(7,0,0) tid=(31,0,0)
GPGPU-Sim PTX: 2200000 instructions simulated : ctaid=(3,0,0) tid=(63,0,0)
GPGPU-Sim uArch: cycles simulated: 8500  inst.: 2275200 (ipc=267.7) sim_rate=227520 (inst/sec) elapsed = 0:0:00:10 / Tue Mar 22 13:09:10 2016
GPGPU-Sim PTX: 2300000 instructions simulated : ctaid=(20,0,0) tid=(127,0,0)
GPGPU-Sim PTX: 2400000 instructions simulated : ctaid=(34,0,0) tid=(31,0,0)
GPGPU-Sim PTX: 2500000 instructions simulated : ctaid=(33,0,0) tid=(63,0,0)
GPGPU-Sim uArch: cycles simulated: 9500  inst.: 2551680 (ipc=268.6) sim_rate=231970 (inst/sec) elapsed = 0:0:00:11 / Tue Mar 22 13:09:11 2016
GPGPU-Sim PTX: 2600000 instructions simulated : ctaid=(7,0,0) tid=(31,0,0)
GPGPU-Sim PTX: 2700000 instructions simulated : ctaid=(3,0,0) tid=(127,0,0)
GPGPU-Sim PTX: 2800000 instructions simulated : ctaid=(40,0,0) tid=(31,0,0)
GPGPU-Sim PTX: 2900000 instructions simulated : ctaid=(42,0,0) tid=(127,0,0)
GPGPU-Sim uArch: cycles simulated: 11000  inst.: 2920320 (ipc=265.5) sim_rate=243360 (inst/sec) elapsed = 0:0:00:12 / Tue Mar 22 13:09:12 2016
GPGPU-Sim PTX: 3000000 instructions simulated : ctaid=(14,0,0) tid=(95,0,0)
GPGPU-Sim PTX: 3100000 instructions simulated : ctaid=(23,0,0) tid=(63,0,0)
GPGPU-Sim PTX: 3200000 instructions simulated : ctaid=(1,0,0) tid=(127,0,0)
GPGPU-Sim PTX: 3300000 instructions simulated : ctaid=(3,0,0) tid=(63,0,0)
GPGPU-Sim uArch: cycles simulated: 12500  inst.: 3288960 (ipc=263.1) sim_rate=252996 (inst/sec) elapsed = 0:0:00:13 / Tue Mar 22 13:09:13 2016
GPGPU-Sim PTX: 3400000 instructions simulated : ctaid=(36,0,0) tid=(31,0,0)
GPGPU-Sim PTX: 3500000 instructions simulated : ctaid=(29,0,0) tid=(31,0,0)
GPGPU-Sim PTX: 3600000 instructions simulated : ctaid=(38,0,0) tid=(63,0,0)
GPGPU-Sim uArch: cycles simulated: 14000  inst.: 3657600 (ipc=261.3) sim_rate=261257 (inst/sec) elapsed = 0:0:00:14 / Tue Mar 22 13:09:14 2016
GPGPU-Sim PTX: 3700000 instructions simulated : ctaid=(9,0,0) tid=(127,0,0)
GPGPU-Sim PTX: 3800000 instructions simulated : ctaid=(18,0,0) tid=(127,0,0)
GPGPU-Sim PTX: 3900000 instructions simulated : ctaid=(25,0,0) tid=(95,0,0)
GPGPU-Sim PTX: 4000000 instructions simulated : ctaid=(35,0,0) tid=(63,0,0)
GPGPU-Sim uArch: cycles simulated: 15500  inst.: 4026240 (ipc=259.8) sim_rate=268416 (inst/sec) elapsed = 0:0:00:15 / Tue Mar 22 13:09:15 2016
GPGPU-Sim PTX: 4100000 instructions simulated : ctaid=(23,0,0) tid=(63,0,0)
GPGPU-Sim PTX: 4200000 instructions simulated : ctaid=(1,0,0) tid=(63,0,0)
GPGPU-Sim PTX: 4300000 instructions simulated : ctaid=(5,0,0) tid=(31,0,0)
GPGPU-Sim PTX: 4400000 instructions simulated : ctaid=(26,0,0) tid=(127,0,0)
GPGPU-Sim uArch: cycles simulated: 17000  inst.: 4394880 (ipc=258.5) sim_rate=274680 (inst/sec) elapsed = 0:0:00:16 / Tue Mar 22 13:09:16 2016
GPGPU-Sim PTX: 4500000 instructions simulated : ctaid=(36,0,0) tid=(31,0,0)
GPGPU-Sim PTX: 4600000 instructions simulated : ctaid=(38,0,0) tid=(63,0,0)
GPGPU-Sim PTX: 4700000 instructions simulated : ctaid=(2,0,0) tid=(63,0,0)
GPGPU-Sim PTX: 4800000 instructions simulated : ctaid=(14,0,0) tid=(31,0,0)
GPGPU-Sim PTX: 4900000 instructions simulated : ctaid=(43,0,0) tid=(95,0,0)
GPGPU-Sim uArch: cycles simulated: 19000  inst.: 4947232 (ipc=260.4) sim_rate=291013 (inst/sec) elapsed = 0:0:00:17 / Tue Mar 22 13:09:17 2016
GPGPU-Sim PTX: 5000000 instructions simulated : ctaid=(16,0,0) tid=(127,0,0)
GPGPU-Sim PTX: 5100000 instructions simulated : ctaid=(5,0,0) tid=(95,0,0)
GPGPU-Sim PTX: 5200000 instructions simulated : ctaid=(0,0,0) tid=(31,0,0)
GPGPU-Sim PTX: 5300000 instructions simulated : ctaid=(31,0,0) tid=(31,0,0)
GPGPU-Sim uArch: cycles simulated: 20500  inst.: 5316480 (ipc=259.3) sim_rate=295360 (inst/sec) elapsed = 0:0:00:18 / Tue Mar 22 13:09:18 2016
GPGPU-Sim PTX: 5400000 instructions simulated : ctaid=(43,0,0) tid=(127,0,0)
GPGPU-Sim PTX: 5500000 instructions simulated : ctaid=(6,0,0) tid=(31,0,0)
GPGPU-Sim PTX: 5600000 instructions simulated : ctaid=(9,0,0) tid=(31,0,0)
GPGPU-Sim PTX: 5700000 instructions simulated : ctaid=(38,0,0) tid=(31,0,0)
GPGPU-Sim uArch: cycles simulated: 22000  inst.: 5685120 (ipc=258.4) sim_rate=299216 (inst/sec) elapsed = 0:0:00:19 / Tue Mar 22 13:09:19 2016
GPGPU-Sim PTX: 5800000 instructions simulated : ctaid=(37,0,0) tid=(63,0,0)
GPGPU-Sim PTX: 5900000 instructions simulated : ctaid=(14,0,0) tid=(127,0,0)
GPGPU-Sim PTX: 6000000 instructions simulated : ctaid=(5,0,0) tid=(127,0,0)
GPGPU-Sim uArch: cycles simulated: 23500  inst.: 6053760 (ipc=257.6) sim_rate=302688 (inst/sec) elapsed = 0:0:00:20 / Tue Mar 22 13:09:20 2016
GPGPU-Sim PTX: 6100000 instructions simulated : ctaid=(1,0,0) tid=(31,0,0)
GPGPU-Sim PTX: 6200000 instructions simulated : ctaid=(18,0,0) tid=(63,0,0)
GPGPU-Sim PTX: 6300000 instructions simulated : ctaid=(18,0,0) tid=(95,0,0)
GPGPU-Sim PTX: 6400000 instructions simulated : ctaid=(14,0,0) tid=(127,0,0)
GPGPU-Sim uArch: cycles simulated: 25000  inst.: 6426336 (ipc=257.1) sim_rate=306016 (inst/sec) elapsed = 0:0:00:21 / Tue Mar 22 13:09:21 2016
GPGPU-Sim PTX: 6500000 instructions simulated : ctaid=(37,0,0) tid=(63,0,0)
GPGPU-Sim PTX: 6600000 instructions simulated : ctaid=(21,0,0) tid=(63,0,0)
GPGPU-Sim PTX: 6700000 instructions simulated : ctaid=(28,0,0) tid=(95,0,0)
GPGPU-Sim PTX: 6800000 instructions simulated : ctaid=(18,0,0) tid=(127,0,0)
GPGPU-Sim uArch: cycles simulated: 26500  inst.: 6827680 (ipc=257.6) sim_rate=310349 (inst/sec) elapsed = 0:0:00:22 / Tue Mar 22 13:09:22 2016
GPGPU-Sim PTX: 6900000 instructions simulated : ctaid=(28,0,0) tid=(127,0,0)
GPGPU-Sim PTX: 7000000 instructions simulated : ctaid=(10,0,0) tid=(95,0,0)
GPGPU-Sim PTX: 7100000 instructions simulated : ctaid=(40,0,0) tid=(63,0,0)
GPGPU-Sim PTX: 7200000 instructions simulated : ctaid=(15,0,0) tid=(127,0,0)
GPGPU-Sim uArch: cycles simulated: 28000  inst.: 7237568 (ipc=258.5) sim_rate=314676 (inst/sec) elapsed = 0:0:00:23 / Tue Mar 22 13:09:23 2016
GPGPU-Sim PTX: 7300000 instructions simulated : ctaid=(44,0,0) tid=(63,0,0)
GPGPU-Sim PTX: 7400000 instructions simulated : ctaid=(29,0,0) tid=(127,0,0)
GPGPU-Sim PTX: 7500000 instructions simulated : ctaid=(6,0,0) tid=(31,0,0)
GPGPU-Sim PTX: 7600000 instructions simulated : ctaid=(11,0,0) tid=(63,0,0)
GPGPU-Sim uArch: cycles simulated: 29500  inst.: 7620352 (ipc=258.3) sim_rate=317514 (inst/sec) elapsed = 0:0:00:24 / Tue Mar 22 13:09:24 2016
GPGPU-Sim PTX: 7700000 instructions simulated : ctaid=(11,0,0) tid=(31,0,0)
GPGPU-Sim PTX: 7800000 instructions simulated : ctaid=(37,0,0) tid=(63,0,0)
GPGPU-Sim PTX: 7900000 instructions simulated : ctaid=(25,0,0) tid=(31,0,0)
GPGPU-Sim PTX: 8000000 instructions simulated : ctaid=(43,0,0) tid=(95,0,0)
GPGPU-Sim PTX: 8100000 instructions simulated : ctaid=(43,0,0) tid=(63,0,0)
GPGPU-Sim uArch: cycles simulated: 31500  inst.: 8083840 (ipc=256.6) sim_rate=323353 (inst/sec) elapsed = 0:0:00:25 / Tue Mar 22 13:09:25 2016
GPGPU-Sim PTX: 8200000 instructions simulated : ctaid=(44,0,0) tid=(31,0,0)
GPGPU-Sim PTX: 8300000 instructions simulated : ctaid=(14,0,0) tid=(127,0,0)
GPGPU-Sim PTX: 8400000 instructions simulated : ctaid=(12,0,0) tid=(63,0,0)
GPGPU-Sim uArch: cycles simulated: 33000  inst.: 8465504 (ipc=256.5) sim_rate=325596 (inst/sec) elapsed = 0:0:00:26 / Tue Mar 22 13:09:26 2016
GPGPU-Sim PTX: 8500000 instructions simulated : ctaid=(11,0,0) tid=(31,0,0)
GPGPU-Sim PTX: 8600000 instructions simulated : ctaid=(0,0,0) tid=(63,0,0)
GPGPU-Sim PTX: 8700000 instructions simulated : ctaid=(6,0,0) tid=(95,0,0)
GPGPU-Sim PTX: 8800000 instructions simulated : ctaid=(0,0,0) tid=(63,0,0)
GPGPU-Sim uArch: cycles simulated: 34500  inst.: 8867072 (ipc=257.0) sim_rate=328410 (inst/sec) elapsed = 0:0:00:27 / Tue Mar 22 13:09:27 2016
GPGPU-Sim PTX: 8900000 instructions simulated : ctaid=(10,0,0) tid=(127,0,0)
GPGPU-Sim PTX: 9000000 instructions simulated : ctaid=(35,0,0) tid=(95,0,0)
GPGPU-Sim PTX: 9100000 instructions simulated : ctaid=(34,0,0) tid=(63,0,0)
GPGPU-Sim PTX: 9200000 instructions simulated : ctaid=(35,0,0) tid=(127,0,0)
GPGPU-Sim PTX: 9300000 instructions simulated : ctaid=(22,0,0) tid=(95,0,0)
GPGPU-Sim uArch: cycles simulated: 36500  inst.: 9371520 (ipc=256.8) sim_rate=334697 (inst/sec) elapsed = 0:0:00:28 / Tue Mar 22 13:09:28 2016
GPGPU-Sim PTX: 9400000 instructions simulated : ctaid=(26,0,0) tid=(95,0,0)
GPGPU-Sim PTX: 9500000 instructions simulated : ctaid=(20,0,0) tid=(31,0,0)
GPGPU-Sim PTX: 9600000 instructions simulated : ctaid=(29,0,0) tid=(31,0,0)
GPGPU-Sim PTX: 9700000 instructions simulated : ctaid=(12,0,0) tid=(63,0,0)
GPGPU-Sim uArch: cycles simulated: 38000  inst.: 9740160 (ipc=256.3) sim_rate=335867 (inst/sec) elapsed = 0:0:00:29 / Tue Mar 22 13:09:29 2016
GPGPU-Sim PTX: 9800000 instructions simulated : ctaid=(8,0,0) tid=(31,0,0)
GPGPU-Sim PTX: 9900000 instructions simulated : ctaid=(36,0,0) tid=(31,0,0)
GPGPU-Sim PTX: 10000000 instructions simulated : ctaid=(25,0,0) tid=(95,0,0)
GPGPU-Sim PTX: 10100000 instructions simulated : ctaid=(7,0,0) tid=(95,0,0)
GPGPU-Sim uArch: cycles simulated: 39500  inst.: 10108800 (ipc=255.9) sim_rate=336960 (inst/sec) elapsed = 0:0:00:30 / Tue Mar 22 13:09:30 2016
GPGPU-Sim PTX: 10200000 instructions simulated : ctaid=(8,0,0) tid=(127,0,0)
GPGPU-Sim PTX: 10300000 instructions simulated : ctaid=(35,0,0) tid=(31,0,0)
GPGPU-Sim PTX: 10400000 instructions simulated : ctaid=(21,0,0) tid=(31,0,0)
GPGPU-Sim PTX: 10500000 instructions simulated : ctaid=(38,0,0) tid=(31,0,0)
GPGPU-Sim uArch: cycles simulated: 41000  inst.: 10478272 (ipc=255.6) sim_rate=338008 (inst/sec) elapsed = 0:0:00:31 / Tue Mar 22 13:09:31 2016
GPGPU-Sim PTX: 10600000 instructions simulated : ctaid=(10,0,0) tid=(63,0,0)
GPGPU-Sim PTX: 10700000 instructions simulated : ctaid=(6,0,0) tid=(95,0,0)
GPGPU-Sim PTX: 10800000 instructions simulated : ctaid=(7,0,0) tid=(127,0,0)
GPGPU-Sim uArch: cycles simulated: 42500  inst.: 10852896 (ipc=255.4) sim_rate=339153 (inst/sec) elapsed = 0:0:00:32 / Tue Mar 22 13:09:32 2016
GPGPU-Sim PTX: 10900000 instructions simulated : ctaid=(23,0,0) tid=(95,0,0)
GPGPU-Sim PTX: 11000000 instructions simulated : ctaid=(2,0,0) tid=(95,0,0)
GPGPU-Sim PTX: 11100000 instructions simulated : ctaid=(16,0,0) tid=(63,0,0)
GPGPU-Sim PTX: 11200000 instructions simulated : ctaid=(22,0,0) tid=(63,0,0)
GPGPU-Sim uArch: cycles simulated: 44000  inst.: 11238208 (ipc=255.4) sim_rate=340551 (inst/sec) elapsed = 0:0:00:33 / Tue Mar 22 13:09:33 2016
GPGPU-Sim PTX: 11300000 instructions simulated : ctaid=(14,0,0) tid=(63,0,0)
GPGPU-Sim PTX: 11400000 instructions simulated : ctaid=(41,0,0) tid=(63,0,0)
GPGPU-Sim PTX: 11500000 instructions simulated : ctaid=(17,0,0) tid=(95,0,0)
GPGPU-Sim uArch: cycles simulated: 45000  inst.: 11491200 (ipc=255.4) sim_rate=337976 (inst/sec) elapsed = 0:0:00:34 / Tue Mar 22 13:09:34 2016
GPGPU-Sim PTX: 11600000 instructions simulated : ctaid=(43,0,0) tid=(63,0,0)
GPGPU-Sim PTX: 11700000 instructions simulated : ctaid=(29,0,0) tid=(127,0,0)
GPGPU-Sim PTX: 11800000 instructions simulated : ctaid=(40,0,0) tid=(31,0,0)
GPGPU-Sim uArch: cycles simulated: 46500  inst.: 11860160 (ipc=255.1) sim_rate=338861 (inst/sec) elapsed = 0:0:00:35 / Tue Mar 22 13:09:35 2016
GPGPU-Sim PTX: 11900000 instructions simulated : ctaid=(31,0,0) tid=(127,0,0)
GPGPU-Sim PTX: 12000000 instructions simulated : ctaid=(34,0,0) tid=(127,0,0)
GPGPU-Sim PTX: 12100000 instructions simulated : ctaid=(22,0,0) tid=(31,0,0)
GPGPU-Sim PTX: 12200000 instructions simulated : ctaid=(3,0,0) tid=(63,0,0)
GPGPU-Sim uArch: cycles simulated: 48000  inst.: 12243296 (ipc=255.1) sim_rate=340091 (inst/sec) elapsed = 0:0:00:36 / Tue Mar 22 13:09:36 2016
GPGPU-Sim PTX: 12300000 instructions simulated : ctaid=(10,0,0) tid=(95,0,0)
GPGPU-Sim PTX: 12400000 instructions simulated : ctaid=(5,0,0) tid=(127,0,0)
GPGPU-Sim PTX: 12500000 instructions simulated : ctaid=(21,0,0) tid=(127,0,0)
GPGPU-Sim PTX: 12600000 instructions simulated : ctaid=(1,0,0) tid=(95,0,0)
GPGPU-Sim uArch: cycles simulated: 49500  inst.: 12638848 (ipc=255.3) sim_rate=341590 (inst/sec) elapsed = 0:0:00:37 / Tue Mar 22 13:09:37 2016
GPGPU-Sim PTX: 12700000 instructions simulated : ctaid=(43,0,0) tid=(95,0,0)
GPGPU-Sim PTX: 12800000 instructions simulated : ctaid=(28,0,0) tid=(31,0,0)
GPGPU-Sim PTX: 12900000 instructions simulated : ctaid=(24,0,0) tid=(31,0,0)
GPGPU-Sim PTX: 13000000 instructions simulated : ctaid=(40,0,0) tid=(31,0,0)
GPGPU-Sim uArch: cycles simulated: 51000  inst.: 13036768 (ipc=255.6) sim_rate=343072 (inst/sec) elapsed = 0:0:00:38 / Tue Mar 22 13:09:38 2016
GPGPU-Sim PTX: 13100000 instructions simulated : ctaid=(26,0,0) tid=(127,0,0)
GPGPU-Sim PTX: 13200000 instructions simulated : ctaid=(10,0,0) tid=(95,0,0)
GPGPU-Sim PTX: 13300000 instructions simulated : ctaid=(42,0,0) tid=(127,0,0)
GPGPU-Sim PTX: 13400000 instructions simulated : ctaid=(31,0,0) tid=(63,0,0)
GPGPU-Sim uArch: cycles simulated: 52500  inst.: 13426080 (ipc=255.7) sim_rate=344258 (inst/sec) elapsed = 0:0:00:39 / Tue Mar 22 13:09:39 2016
GPGPU-Sim PTX: 13500000 instructions simulated : ctaid=(44,0,0) tid=(127,0,0)
GPGPU-Sim PTX: 13600000 instructions simulated : ctaid=(14,0,0) tid=(127,0,0)
GPGPU-Sim PTX: 13700000 instructions simulated : ctaid=(2,0,0) tid=(63,0,0)
GPGPU-Sim PTX: 13800000 instructions simulated : ctaid=(41,0,0) tid=(63,0,0)
GPGPU-Sim uArch: cycles simulated: 54000  inst.: 13795200 (ipc=255.5) sim_rate=344880 (inst/sec) elapsed = 0:0:00:40 / Tue Mar 22 13:09:40 2016
GPGPU-Sim PTX: 13900000 instructions simulated : ctaid=(28,0,0) tid=(95,0,0)
GPGPU-Sim PTX: 14000000 instructions simulated : ctaid=(6,0,0) tid=(127,0,0)
GPGPU-Sim PTX: 14100000 instructions simulated : ctaid=(44,0,0) tid=(127,0,0)
GPGPU-Sim uArch: cycles simulated: 55500  inst.: 14163840 (ipc=255.2) sim_rate=345459 (inst/sec) elapsed = 0:0:00:41 / Tue Mar 22 13:09:41 2016
GPGPU-Sim PTX: 14200000 instructions simulated : ctaid=(25,0,0) tid=(95,0,0)
GPGPU-Sim PTX: 14300000 instructions simulated : ctaid=(25,0,0) tid=(127,0,0)
GPGPU-Sim PTX: 14400000 instructions simulated : ctaid=(11,0,0) tid=(31,0,0)
GPGPU-Sim PTX: 14500000 instructions simulated : ctaid=(27,0,0) tid=(95,0,0)
GPGPU-Sim uArch: cycles simulated: 57000  inst.: 14532480 (ipc=255.0) sim_rate=346011 (inst/sec) elapsed = 0:0:00:42 / Tue Mar 22 13:09:42 2016
GPGPU-Sim PTX: 14600000 instructions simulated : ctaid=(12,0,0) tid=(63,0,0)
GPGPU-Sim PTX: 14700000 instructions simulated : ctaid=(38,0,0) tid=(63,0,0)
GPGPU-Sim uArch: Shader 4 finished CTA #1 (58700,0), 2 CTAs running
GPGPU-Sim uArch: Shader 10 finished CTA #2 (58700,0), 2 CTAs running
GPGPU-Sim uArch: core:  4, cta: 1 initialized @(58701,0)
GPGPU-Sim uArch: core: 10, cta: 2 initialized @(58701,0)
GPGPU-Sim uArch: Shader 1 finished CTA #2 (58712,0), 2 CTAs running
GPGPU-Sim uArch: Shader 4 finished CTA #0 (58712,0), 2 CTAs running
GPGPU-Sim uArch: core:  1, cta: 2 initialized @(58713,0)
GPGPU-Sim uArch: core:  4, cta: 0 initialized @(58713,0)
GPGPU-Sim uArch: Shader 1 finished CTA #0 (58739,0), 2 CTAs running
GPGPU-Sim uArch: core:  1, cta: 0 initialized @(58740,0)
GPGPU-Sim uArch: Shader 4 finished CTA #2 (58745,0), 2 CTAs running
GPGPU-Sim uArch: core:  4, cta: 2 initialized @(58746,0)
GPGPU-Sim uArch: Shader 1 finished CTA #1 (58751,0), 2 CTAs running
GPGPU-Sim uArch: core:  1, cta: 1 initialized @(58752,0)
GPGPU-Sim uArch: Shader 10 finished CTA #1 (58763,0), 2 CTAs running
GPGPU-Sim uArch: core: 10, cta: 1 initialized @(58764,0)
GPGPU-Sim uArch: Shader 10 finished CTA #0 (58775,0), 2 CTAs running
GPGPU-Sim uArch: core: 10, cta: 0 initialized @(58776,0)
GPGPU-Sim uArch: Shader 5 finished CTA #1 (58793,0), 2 CTAs running
GPGPU-Sim uArch: core:  5, cta: 1 initialized @(58794,0)
GPGPU-Sim uArch: Shader 13 finished CTA #2 (58826,0), 2 CTAs running
GPGPU-Sim uArch: core: 13, cta: 2 initialized @(58827,0)
GPGPU-Sim uArch: Shader 2 finished CTA #1 (58835,0), 2 CTAs running
GPGPU-Sim uArch: Shader 7 finished CTA #1 (58835,0), 2 CTAs running
GPGPU-Sim uArch: core:  2, cta: 1 initialized @(58836,0)
GPGPU-Sim uArch: core:  7, cta: 1 initialized @(58836,0)
GPGPU-Sim uArch: Shader 6 finished CTA #2 (58850,0), 2 CTAs running
GPGPU-Sim uArch: core:  6, cta: 2 initialized @(58851,0)
GPGPU-Sim uArch: Shader 7 finished CTA #2 (58856,0), 2 CTAs running
GPGPU-Sim uArch: core:  7, cta: 2 initialized @(58857,0)
GPGPU-Sim uArch: Shader 14 finished CTA #2 (58858,0), 2 CTAs running
GPGPU-Sim uArch: core: 14, cta: 2 initialized @(58859,0)
GPGPU-Sim uArch: Shader 5 finished CTA #0 (58859,0), 2 CTAs running
GPGPU-Sim uArch: Shader 13 finished CTA #0 (58859,0), 2 CTAs running
GPGPU-Sim uArch: core:  5, cta: 0 initialized @(58860,0)
GPGPU-Sim uArch: core: 13, cta: 0 initialized @(58860,0)
GPGPU-Sim uArch: Shader 3 finished CTA #1 (58862,0), 2 CTAs running
GPGPU-Sim uArch: core:  3, cta: 1 initialized @(58863,0)
GPGPU-Sim uArch: Shader 7 finished CTA #0 (58868,0), 2 CTAs running
GPGPU-Sim uArch: core:  7, cta: 0 initialized @(58869,0)
GPGPU-Sim uArch: Shader 5 finished CTA #2 (58871,0), 2 CTAs running
GPGPU-Sim uArch: Shader 13 finished CTA #1 (58871,0), 2 CTAs running
GPGPU-Sim uArch: core: 13, cta: 1 initialized @(58872,0)
GPGPU-Sim uArch: core:  5, cta: 2 initialized @(58872,0)
GPGPU-Sim uArch: Shader 6 finished CTA #1 (58880,0), 2 CTAs running
GPGPU-Sim uArch: Shader 8 finished CTA #1 (58880,0), 2 CTAs running
GPGPU-Sim uArch: core:  6, cta: 1 initialized @(58881,0)
GPGPU-Sim uArch: core:  8, cta: 1 initialized @(58881,0)
GPGPU-Sim uArch: Shader 3 finished CTA #0 (58883,0), 2 CTAs running
GPGPU-Sim uArch: core:  3, cta: 0 initialized @(58884,0)
GPGPU-Sim uArch: Shader 2 finished CTA #2 (58889,0), 2 CTAs running
GPGPU-Sim uArch: core:  2, cta: 2 initialized @(58890,0)
GPGPU-Sim uArch: Shader 14 finished CTA #0 (58892,0), 2 CTAs running
GPGPU-Sim uArch: core: 14, cta: 0 initialized @(58893,0)
GPGPU-Sim uArch: Shader 14 finished CTA #1 (58904,0), 2 CTAs running
GPGPU-Sim uArch: core: 14, cta: 1 initialized @(58905,0)
GPGPU-Sim uArch: Shader 3 finished CTA #2 (58907,0), 2 CTAs running
GPGPU-Sim uArch: core:  3, cta: 2 initialized @(58908,0)
GPGPU-Sim uArch: Shader 0 finished CTA #1 (58910,0), 2 CTAs running
GPGPU-Sim uArch: core:  0, cta: 1 initialized @(58911,0)
GPGPU-Sim uArch: Shader 2 finished CTA #0 (58913,0), 2 CTAs running
GPGPU-Sim uArch: Shader 6 finished CTA #0 (58913,0), 2 CTAs running
GPGPU-Sim uArch: Shader 11 finished CTA #1 (58913,0), 2 CTAs running
GPGPU-Sim uArch: core:  2, cta: 0 initialized @(58914,0)
GPGPU-Sim uArch: core:  6, cta: 0 initialized @(58914,0)
GPGPU-Sim uArch: core: 11, cta: 1 initialized @(58914,0)
GPGPU-Sim uArch: Shader 9 finished CTA #2 (58919,0), 2 CTAs running
GPGPU-Sim uArch: core:  9, cta: 2 initialized @(58920,0)
GPGPU-Sim uArch: Shader 0 finished CTA #2 (58925,0), 2 CTAs running
GPGPU-Sim uArch: Shader 8 finished CTA #0 (58925,0), 2 CTAs running
GPGPU-Sim uArch: Shader 11 finished CTA #2 (58925,0), 2 CTAs running
GPGPU-Sim uArch: core: 11, cta: 2 initialized @(58926,0)
GPGPU-Sim uArch: core:  0, cta: 2 initialized @(58926,0)
GPGPU-Sim uArch: core:  8, cta: 0 initialized @(58926,0)
GPGPU-Sim uArch: Shader 9 finished CTA #0 (58934,0), 2 CTAs running
GPGPU-Sim uArch: core:  9, cta: 0 initialized @(58935,0)
GPGPU-Sim uArch: Shader 0 finished CTA #0 (58937,0), 2 CTAs running
GPGPU-Sim uArch: Shader 8 finished CTA #2 (58937,0), 2 CTAs running
GPGPU-Sim uArch: Shader 11 finished CTA #0 (58937,0), 2 CTAs running
GPGPU-Sim uArch: core: 11, cta: 0 initialized @(58938,0)
GPGPU-Sim uArch: core:  0, cta: 0 initialized @(58938,0)
GPGPU-Sim uArch: core:  8, cta: 2 initialized @(58938,0)
GPGPU-Sim uArch: Shader 12 finished CTA #2 (58940,0), 2 CTAs running
GPGPU-Sim uArch: core: 12, cta: 2 initialized @(58941,0)
GPGPU-Sim uArch: Shader 9 finished CTA #1 (58964,0), 2 CTAs running
GPGPU-Sim uArch: core:  9, cta: 1 initialized @(58965,0)
GPGPU-Sim uArch: Shader 12 finished CTA #0 (58967,0), 2 CTAs running
GPGPU-Sim uArch: core: 12, cta: 0 initialized @(58968,0)
GPGPU-Sim uArch: Shader 12 finished CTA #1 (58991,0), 2 CTAs running
GPGPU-Sim uArch: core: 12, cta: 1 initialized @(58992,0)
GPGPU-Sim uArch: cycles simulated: 59000  inst.: 14753344 (ipc=250.1) sim_rate=327852 (inst/sec) elapsed = 0:0:00:45 / Tue Mar 22 13:09:45 2016
GPGPU-Sim PTX: 14800000 instructions simulated : ctaid=(70,0,0) tid=(127,0,0)
GPGPU-Sim PTX: 14900000 instructions simulated : ctaid=(60,0,0) tid=(127,0,0)
GPGPU-Sim uArch: cycles simulated: 59500  inst.: 14918176 (ipc=250.7) sim_rate=324308 (inst/sec) elapsed = 0:0:00:46 / Tue Mar 22 13:09:46 2016
GPGPU-Sim PTX: 15000000 instructions simulated : ctaid=(83,0,0) tid=(95,0,0)
GPGPU-Sim PTX: 15100000 instructions simulated : ctaid=(45,0,0) tid=(63,0,0)
GPGPU-Sim PTX: 15200000 instructions simulated : ctaid=(87,0,0) tid=(95,0,0)
GPGPU-Sim uArch: cycles simulated: 60500  inst.: 15240800 (ipc=251.9) sim_rate=324272 (inst/sec) elapsed = 0:0:00:47 / Tue Mar 22 13:09:47 2016
GPGPU-Sim PTX: 15300000 instructions simulated : ctaid=(66,0,0) tid=(63,0,0)
GPGPU-Sim PTX: 15400000 instructions simulated : ctaid=(75,0,0) tid=(31,0,0)
GPGPU-Sim PTX: 15500000 instructions simulated : ctaid=(70,0,0) tid=(95,0,0)
GPGPU-Sim PTX: 15600000 instructions simulated : ctaid=(81,0,0) tid=(95,0,0)
GPGPU-Sim PTX: 15700000 instructions simulated : ctaid=(86,0,0) tid=(95,0,0)
GPGPU-Sim uArch: cycles simulated: 61500  inst.: 15716576 (ipc=255.6) sim_rate=327428 (inst/sec) elapsed = 0:0:00:48 / Tue Mar 22 13:09:48 2016
GPGPU-Sim PTX: 15800000 instructions simulated : ctaid=(66,0,0) tid=(127,0,0)
GPGPU-Sim PTX: 15900000 instructions simulated : ctaid=(80,0,0) tid=(127,0,0)
GPGPU-Sim PTX: 16000000 instructions simulated : ctaid=(65,0,0) tid=(63,0,0)
GPGPU-Sim PTX: 16100000 instructions simulated : ctaid=(79,0,0) tid=(31,0,0)
GPGPU-Sim uArch: cycles simulated: 62000  inst.: 16074752 (ipc=259.3) sim_rate=328056 (inst/sec) elapsed = 0:0:00:49 / Tue Mar 22 13:09:49 2016
GPGPU-Sim PTX: 16200000 instructions simulated : ctaid=(81,0,0) tid=(63,0,0)
GPGPU-Sim PTX: 16300000 instructions simulated : ctaid=(63,0,0) tid=(127,0,0)
GPGPU-Sim PTX: 16400000 instructions simulated : ctaid=(48,0,0) tid=(127,0,0)
GPGPU-Sim uArch: cycles simulated: 63000  inst.: 16406784 (ipc=260.4) sim_rate=328135 (inst/sec) elapsed = 0:0:00:50 / Tue Mar 22 13:09:50 2016
GPGPU-Sim PTX: 16500000 instructions simulated : ctaid=(45,0,0) tid=(127,0,0)
GPGPU-Sim PTX: 16600000 instructions simulated : ctaid=(86,0,0) tid=(63,0,0)
GPGPU-Sim PTX: 16700000 instructions simulated : ctaid=(47,0,0) tid=(63,0,0)
GPGPU-Sim PTX: 16800000 instructions simulated : ctaid=(62,0,0) tid=(127,0,0)
GPGPU-Sim uArch: cycles simulated: 64000  inst.: 16774112 (ipc=262.1) sim_rate=328904 (inst/sec) elapsed = 0:0:00:51 / Tue Mar 22 13:09:51 2016
GPGPU-Sim PTX: 16900000 instructions simulated : ctaid=(66,0,0) tid=(31,0,0)
GPGPU-Sim PTX: 17000000 instructions simulated : ctaid=(54,0,0) tid=(63,0,0)
GPGPU-Sim uArch: cycles simulated: 64500  inst.: 16957024 (ipc=262.9) sim_rate=326096 (inst/sec) elapsed = 0:0:00:52 / Tue Mar 22 13:09:52 2016
GPGPU-Sim PTX: 17100000 instructions simulated : ctaid=(64,0,0) tid=(127,0,0)
GPGPU-Sim PTX: 17200000 instructions simulated : ctaid=(84,0,0) tid=(63,0,0)
GPGPU-Sim PTX: 17300000 instructions simulated : ctaid=(50,0,0) tid=(95,0,0)
GPGPU-Sim uArch: cycles simulated: 65500  inst.: 17330944 (ipc=264.6) sim_rate=326998 (inst/sec) elapsed = 0:0:00:53 / Tue Mar 22 13:09:53 2016
GPGPU-Sim PTX: 17400000 instructions simulated : ctaid=(50,0,0) tid=(127,0,0)
GPGPU-Sim PTX: 17500000 instructions simulated : ctaid=(85,0,0) tid=(31,0,0)
GPGPU-Sim PTX: 17600000 instructions simulated : ctaid=(68,0,0) tid=(31,0,0)
GPGPU-Sim PTX: 17700000 instructions simulated : ctaid=(77,0,0) tid=(127,0,0)
GPGPU-Sim uArch: cycles simulated: 66500  inst.: 17693472 (ipc=266.1) sim_rate=327656 (inst/sec) elapsed = 0:0:00:54 / Tue Mar 22 13:09:54 2016
GPGPU-Sim PTX: 17800000 instructions simulated : ctaid=(49,0,0) tid=(31,0,0)
GPGPU-Sim PTX: 17900000 instructions simulated : ctaid=(89,0,0) tid=(95,0,0)
GPGPU-Sim PTX: 18000000 instructions simulated : ctaid=(53,0,0) tid=(63,0,0)
GPGPU-Sim PTX: 18100000 instructions simulated : ctaid=(47,0,0) tid=(95,0,0)
GPGPU-Sim uArch: cycles simulated: 67500  inst.: 18056768 (ipc=267.5) sim_rate=328304 (inst/sec) elapsed = 0:0:00:55 / Tue Mar 22 13:09:55 2016
GPGPU-Sim PTX: 18200000 instructions simulated : ctaid=(52,0,0) tid=(127,0,0)
GPGPU-Sim PTX: 18300000 instructions simulated : ctaid=(45,0,0) tid=(95,0,0)
GPGPU-Sim PTX: 18400000 instructions simulated : ctaid=(57,0,0) tid=(63,0,0)
GPGPU-Sim uArch: cycles simulated: 68500  inst.: 18418528 (ipc=268.9) sim_rate=328902 (inst/sec) elapsed = 0:0:00:56 / Tue Mar 22 13:09:56 2016
GPGPU-Sim PTX: 18500000 instructions simulated : ctaid=(73,0,0) tid=(31,0,0)
GPGPU-Sim PTX: 18600000 instructions simulated : ctaid=(58,0,0) tid=(127,0,0)
GPGPU-Sim PTX: 18700000 instructions simulated : ctaid=(79,0,0) tid=(31,0,0)
GPGPU-Sim PTX: 18800000 instructions simulated : ctaid=(87,0,0) tid=(31,0,0)
GPGPU-Sim uArch: cycles simulated: 69500  inst.: 18780448 (ipc=270.2) sim_rate=329481 (inst/sec) elapsed = 0:0:00:57 / Tue Mar 22 13:09:57 2016
GPGPU-Sim PTX: 18900000 instructions simulated : ctaid=(88,0,0) tid=(95,0,0)
GPGPU-Sim PTX: 19000000 instructions simulated : ctaid=(46,0,0) tid=(31,0,0)
GPGPU-Sim PTX: 19100000 instructions simulated : ctaid=(52,0,0) tid=(31,0,0)
GPGPU-Sim PTX: 19200000 instructions simulated : ctaid=(49,0,0) tid=(127,0,0)
GPGPU-Sim uArch: cycles simulated: 70500  inst.: 19151552 (ipc=271.7) sim_rate=330199 (inst/sec) elapsed = 0:0:00:58 / Tue Mar 22 13:09:58 2016
GPGPU-Sim PTX: 19300000 instructions simulated : ctaid=(82,0,0) tid=(95,0,0)
GPGPU-Sim PTX: 19400000 instructions simulated : ctaid=(54,0,0) tid=(63,0,0)
GPGPU-Sim PTX: 19500000 instructions simulated : ctaid=(57,0,0) tid=(95,0,0)
GPGPU-Sim uArch: cycles simulated: 71500  inst.: 19522976 (ipc=273.0) sim_rate=330897 (inst/sec) elapsed = 0:0:00:59 / Tue Mar 22 13:09:59 2016
GPGPU-Sim PTX: 19600000 instructions simulated : ctaid=(77,0,0) tid=(31,0,0)
GPGPU-Sim PTX: 19700000 instructions simulated : ctaid=(69,0,0) tid=(31,0,0)
GPGPU-Sim uArch: cycles simulated: 72000  inst.: 19709664 (ipc=273.7) sim_rate=328494 (inst/sec) elapsed = 0:0:01:00 / Tue Mar 22 13:10:00 2016
GPGPU-Sim PTX: 19800000 instructions simulated : ctaid=(67,0,0) tid=(63,0,0)
GPGPU-Sim PTX: 19900000 instructions simulated : ctaid=(71,0,0) tid=(63,0,0)
GPGPU-Sim PTX: 20000000 instructions simulated : ctaid=(77,0,0) tid=(95,0,0)
GPGPU-Sim PTX: 20100000 instructions simulated : ctaid=(54,0,0) tid=(31,0,0)
GPGPU-Sim uArch: cycles simulated: 73000  inst.: 20075200 (ipc=275.0) sim_rate=329101 (inst/sec) elapsed = 0:0:01:01 / Tue Mar 22 13:10:01 2016
GPGPU-Sim PTX: 20200000 instructions simulated : ctaid=(86,0,0) tid=(31,0,0)
GPGPU-Sim PTX: 20300000 instructions simulated : ctaid=(62,0,0) tid=(95,0,0)
GPGPU-Sim PTX: 20400000 instructions simulated : ctaid=(70,0,0) tid=(95,0,0)
GPGPU-Sim uArch: cycles simulated: 74000  inst.: 20443520 (ipc=276.3) sim_rate=329734 (inst/sec) elapsed = 0:0:01:02 / Tue Mar 22 13:10:02 2016
GPGPU-Sim PTX: 20500000 instructions simulated : ctaid=(46,0,0) tid=(127,0,0)
GPGPU-Sim PTX: 20600000 instructions simulated : ctaid=(56,0,0) tid=(95,0,0)
GPGPU-Sim PTX: 20700000 instructions simulated : ctaid=(71,0,0) tid=(63,0,0)
GPGPU-Sim PTX: 20800000 instructions simulated : ctaid=(75,0,0) tid=(63,0,0)
GPGPU-Sim uArch: cycles simulated: 75000  inst.: 20815904 (ipc=277.5) sim_rate=330411 (inst/sec) elapsed = 0:0:01:03 / Tue Mar 22 13:10:03 2016
GPGPU-Sim PTX: 20900000 instructions simulated : ctaid=(85,0,0) tid=(63,0,0)
GPGPU-Sim PTX: 21000000 instructions simulated : ctaid=(58,0,0) tid=(31,0,0)
GPGPU-Sim PTX: 21100000 instructions simulated : ctaid=(78,0,0) tid=(31,0,0)
GPGPU-Sim PTX: 21200000 instructions simulated : ctaid=(81,0,0) tid=(31,0,0)
GPGPU-Sim uArch: cycles simulated: 76000  inst.: 21187584 (ipc=278.8) sim_rate=331056 (inst/sec) elapsed = 0:0:01:04 / Tue Mar 22 13:10:04 2016
GPGPU-Sim PTX: 21300000 instructions simulated : ctaid=(82,0,0) tid=(127,0,0)
GPGPU-Sim PTX: 21400000 instructions simulated : ctaid=(47,0,0) tid=(95,0,0)
GPGPU-Sim PTX: 21500000 instructions simulated : ctaid=(66,0,0) tid=(127,0,0)
GPGPU-Sim PTX: 21600000 instructions simulated : ctaid=(70,0,0) tid=(63,0,0)
GPGPU-Sim uArch: cycles simulated: 77000  inst.: 21562816 (ipc=280.0) sim_rate=331735 (inst/sec) elapsed = 0:0:01:05 / Tue Mar 22 13:10:05 2016
GPGPU-Sim PTX: 21700000 instructions simulated : ctaid=(57,0,0) tid=(95,0,0)
GPGPU-Sim PTX: 21800000 instructions simulated : ctaid=(48,0,0) tid=(127,0,0)
GPGPU-Sim PTX: 21900000 instructions simulated : ctaid=(77,0,0) tid=(95,0,0)
GPGPU-Sim uArch: cycles simulated: 78000  inst.: 21933984 (ipc=281.2) sim_rate=332333 (inst/sec) elapsed = 0:0:01:06 / Tue Mar 22 13:10:06 2016
GPGPU-Sim PTX: 22000000 instructions simulated : ctaid=(83,0,0) tid=(31,0,0)
GPGPU-Sim PTX: 22100000 instructions simulated : ctaid=(50,0,0) tid=(63,0,0)
GPGPU-Sim PTX: 22200000 instructions simulated : ctaid=(68,0,0) tid=(127,0,0)
GPGPU-Sim PTX: 22300000 instructions simulated : ctaid=(86,0,0) tid=(127,0,0)
GPGPU-Sim uArch: cycles simulated: 79000  inst.: 22307680 (ipc=282.4) sim_rate=332950 (inst/sec) elapsed = 0:0:01:07 / Tue Mar 22 13:10:07 2016
GPGPU-Sim PTX: 22400000 instructions simulated : ctaid=(76,0,0) tid=(31,0,0)
GPGPU-Sim PTX: 22500000 instructions simulated : ctaid=(55,0,0) tid=(31,0,0)
GPGPU-Sim PTX: 22600000 instructions simulated : ctaid=(54,0,0) tid=(127,0,0)
GPGPU-Sim PTX: 22700000 instructions simulated : ctaid=(46,0,0) tid=(63,0,0)
GPGPU-Sim uArch: cycles simulated: 80000  inst.: 22674880 (ipc=283.4) sim_rate=333454 (inst/sec) elapsed = 0:0:01:08 / Tue Mar 22 13:10:08 2016
GPGPU-Sim PTX: 22800000 instructions simulated : ctaid=(59,0,0) tid=(95,0,0)
GPGPU-Sim PTX: 22900000 instructions simulated : ctaid=(54,0,0) tid=(31,0,0)
GPGPU-Sim PTX: 23000000 instructions simulated : ctaid=(57,0,0) tid=(63,0,0)
GPGPU-Sim PTX: 23100000 instructions simulated : ctaid=(85,0,0) tid=(127,0,0)
GPGPU-Sim uArch: cycles simulated: 81000  inst.: 23045888 (ipc=284.5) sim_rate=333998 (inst/sec) elapsed = 0:0:01:09 / Tue Mar 22 13:10:09 2016
GPGPU-Sim PTX: 23200000 instructions simulated : ctaid=(77,0,0) tid=(63,0,0)
GPGPU-Sim PTX: 23300000 instructions simulated : ctaid=(88,0,0) tid=(31,0,0)
GPGPU-Sim PTX: 23400000 instructions simulated : ctaid=(71,0,0) tid=(127,0,0)
GPGPU-Sim uArch: cycles simulated: 82000  inst.: 23415968 (ipc=285.6) sim_rate=334513 (inst/sec) elapsed = 0:0:01:10 / Tue Mar 22 13:10:10 2016
GPGPU-Sim PTX: 23500000 instructions simulated : ctaid=(72,0,0) tid=(127,0,0)
GPGPU-Sim PTX: 23600000 instructions simulated : ctaid=(78,0,0) tid=(127,0,0)
GPGPU-Sim PTX: 23700000 instructions simulated : ctaid=(51,0,0) tid=(31,0,0)
GPGPU-Sim PTX: 23800000 instructions simulated : ctaid=(62,0,0) tid=(95,0,0)
GPGPU-Sim uArch: cycles simulated: 83000  inst.: 23785472 (ipc=286.6) sim_rate=335006 (inst/sec) elapsed = 0:0:01:11 / Tue Mar 22 13:10:11 2016
GPGPU-Sim PTX: 23900000 instructions simulated : ctaid=(46,0,0) tid=(95,0,0)
GPGPU-Sim PTX: 24000000 instructions simulated : ctaid=(64,0,0) tid=(31,0,0)
GPGPU-Sim PTX: 24100000 instructions simulated : ctaid=(46,0,0) tid=(63,0,0)
GPGPU-Sim PTX: 24200000 instructions simulated : ctaid=(48,0,0) tid=(63,0,0)
GPGPU-Sim uArch: cycles simulated: 84000  inst.: 24157600 (ipc=287.6) sim_rate=335522 (inst/sec) elapsed = 0:0:01:12 / Tue Mar 22 13:10:12 2016
GPGPU-Sim PTX: 24300000 instructions simulated : ctaid=(85,0,0) tid=(63,0,0)
GPGPU-Sim PTX: 24400000 instructions simulated : ctaid=(72,0,0) tid=(31,0,0)
GPGPU-Sim PTX: 24500000 instructions simulated : ctaid=(49,0,0) tid=(127,0,0)
GPGPU-Sim uArch: cycles simulated: 85000  inst.: 24532192 (ipc=288.6) sim_rate=336057 (inst/sec) elapsed = 0:0:01:13 / Tue Mar 22 13:10:13 2016
GPGPU-Sim PTX: 24600000 instructions simulated : ctaid=(82,0,0) tid=(127,0,0)
GPGPU-Sim PTX: 24700000 instructions simulated : ctaid=(81,0,0) tid=(127,0,0)
GPGPU-Sim uArch: cycles simulated: 85500  inst.: 24719488 (ipc=289.1) sim_rate=334047 (inst/sec) elapsed = 0:0:01:14 / Tue Mar 22 13:10:14 2016
GPGPU-Sim PTX: 24800000 instructions simulated : ctaid=(60,0,0) tid=(95,0,0)
GPGPU-Sim PTX: 24900000 instructions simulated : ctaid=(47,0,0) tid=(31,0,0)
GPGPU-Sim PTX: 25000000 instructions simulated : ctaid=(48,0,0) tid=(95,0,0)
GPGPU-Sim PTX: 25100000 instructions simulated : ctaid=(56,0,0) tid=(31,0,0)
GPGPU-Sim uArch: cycles simulated: 86500  inst.: 25090336 (ipc=290.1) sim_rate=334537 (inst/sec) elapsed = 0:0:01:15 / Tue Mar 22 13:10:15 2016
GPGPU-Sim PTX: 25200000 instructions simulated : ctaid=(45,0,0) tid=(31,0,0)
GPGPU-Sim PTX: 25300000 instructions simulated : ctaid=(56,0,0) tid=(95,0,0)
GPGPU-Sim PTX: 25400000 instructions simulated : ctaid=(76,0,0) tid=(95,0,0)
GPGPU-Sim PTX: 25500000 instructions simulated : ctaid=(63,0,0) tid=(127,0,0)
GPGPU-Sim uArch: cycles simulated: 87500  inst.: 25461760 (ipc=291.0) sim_rate=335023 (inst/sec) elapsed = 0:0:01:16 / Tue Mar 22 13:10:16 2016
GPGPU-Sim PTX: 25600000 instructions simulated : ctaid=(85,0,0) tid=(95,0,0)
GPGPU-Sim PTX: 25700000 instructions simulated : ctaid=(68,0,0) tid=(63,0,0)
GPGPU-Sim PTX: 25800000 instructions simulated : ctaid=(89,0,0) tid=(31,0,0)
GPGPU-Sim uArch: cycles simulated: 88500  inst.: 25832352 (ipc=291.9) sim_rate=335485 (inst/sec) elapsed = 0:0:01:17 / Tue Mar 22 13:10:17 2016
GPGPU-Sim PTX: 25900000 instructions simulated : ctaid=(84,0,0) tid=(31,0,0)
GPGPU-Sim PTX: 26000000 instructions simulated : ctaid=(65,0,0) tid=(63,0,0)
GPGPU-Sim uArch: cycles simulated: 89000  inst.: 26017440 (ipc=292.3) sim_rate=333556 (inst/sec) elapsed = 0:0:01:18 / Tue Mar 22 13:10:18 2016
GPGPU-Sim PTX: 26100000 instructions simulated : ctaid=(60,0,0) tid=(95,0,0)
GPGPU-Sim PTX: 26200000 instructions simulated : ctaid=(60,0,0) tid=(63,0,0)
GPGPU-Sim PTX: 26300000 instructions simulated : ctaid=(45,0,0) tid=(95,0,0)
GPGPU-Sim PTX: 26400000 instructions simulated : ctaid=(61,0,0) tid=(127,0,0)
GPGPU-Sim uArch: cycles simulated: 90000  inst.: 26384960 (ipc=293.2) sim_rate=333986 (inst/sec) elapsed = 0:0:01:19 / Tue Mar 22 13:10:19 2016
GPGPU-Sim PTX: 26500000 instructions simulated : ctaid=(56,0,0) tid=(95,0,0)
GPGPU-Sim PTX: 26600000 instructions simulated : ctaid=(59,0,0) tid=(95,0,0)
GPGPU-Sim PTX: 26700000 instructions simulated : ctaid=(69,0,0) tid=(95,0,0)
GPGPU-Sim PTX: 26800000 instructions simulated : ctaid=(67,0,0) tid=(127,0,0)
GPGPU-Sim uArch: cycles simulated: 91000  inst.: 26750080 (ipc=294.0) sim_rate=334376 (inst/sec) elapsed = 0:0:01:20 / Tue Mar 22 13:10:20 2016
GPGPU-Sim PTX: 26900000 instructions simulated : ctaid=(71,0,0) tid=(31,0,0)
GPGPU-Sim PTX: 27000000 instructions simulated : ctaid=(82,0,0) tid=(31,0,0)
GPGPU-Sim PTX: 27100000 instructions simulated : ctaid=(72,0,0) tid=(95,0,0)
GPGPU-Sim uArch: cycles simulated: 92000  inst.: 27116608 (ipc=294.7) sim_rate=334772 (inst/sec) elapsed = 0:0:01:21 / Tue Mar 22 13:10:21 2016
GPGPU-Sim PTX: 27200000 instructions simulated : ctaid=(60,0,0) tid=(95,0,0)
GPGPU-Sim PTX: 27300000 instructions simulated : ctaid=(47,0,0) tid=(31,0,0)
GPGPU-Sim PTX: 27400000 instructions simulated : ctaid=(75,0,0) tid=(31,0,0)
GPGPU-Sim PTX: 27500000 instructions simulated : ctaid=(59,0,0) tid=(127,0,0)
GPGPU-Sim uArch: cycles simulated: 93000  inst.: 27492832 (ipc=295.6) sim_rate=335278 (inst/sec) elapsed = 0:0:01:22 / Tue Mar 22 13:10:22 2016
GPGPU-Sim PTX: 27600000 instructions simulated : ctaid=(70,0,0) tid=(127,0,0)
GPGPU-Sim PTX: 27700000 instructions simulated : ctaid=(61,0,0) tid=(95,0,0)
GPGPU-Sim PTX: 27800000 instructions simulated : ctaid=(77,0,0) tid=(127,0,0)
GPGPU-Sim PTX: 27900000 instructions simulated : ctaid=(50,0,0) tid=(127,0,0)
GPGPU-Sim uArch: cycles simulated: 94000  inst.: 27864928 (ipc=296.4) sim_rate=335722 (inst/sec) elapsed = 0:0:01:23 / Tue Mar 22 13:10:23 2016
GPGPU-Sim PTX: 28000000 instructions simulated : ctaid=(59,0,0) tid=(127,0,0)
GPGPU-Sim PTX: 28100000 instructions simulated : ctaid=(67,0,0) tid=(63,0,0)
GPGPU-Sim PTX: 28200000 instructions simulated : ctaid=(88,0,0) tid=(31,0,0)
GPGPU-Sim uArch: cycles simulated: 95000  inst.: 28239200 (ipc=297.3) sim_rate=336180 (inst/sec) elapsed = 0:0:01:24 / Tue Mar 22 13:10:24 2016
GPGPU-Sim PTX: 28300000 instructions simulated : ctaid=(86,0,0) tid=(31,0,0)
GPGPU-Sim PTX: 28400000 instructions simulated : ctaid=(78,0,0) tid=(127,0,0)
GPGPU-Sim uArch: cycles simulated: 95500  inst.: 28422784 (ipc=297.6) sim_rate=334385 (inst/sec) elapsed = 0:0:01:25 / Tue Mar 22 13:10:25 2016
GPGPU-Sim PTX: 28500000 instructions simulated : ctaid=(60,0,0) tid=(127,0,0)
GPGPU-Sim PTX: 28600000 instructions simulated : ctaid=(50,0,0) tid=(31,0,0)
GPGPU-Sim PTX: 28700000 instructions simulated : ctaid=(50,0,0) tid=(95,0,0)
GPGPU-Sim PTX: 28800000 instructions simulated : ctaid=(76,0,0) tid=(95,0,0)
GPGPU-Sim uArch: cycles simulated: 96500  inst.: 28788896 (ipc=298.3) sim_rate=334754 (inst/sec) elapsed = 0:0:01:26 / Tue Mar 22 13:10:26 2016
GPGPU-Sim PTX: 28900000 instructions simulated : ctaid=(76,0,0) tid=(127,0,0)
GPGPU-Sim PTX: 29000000 instructions simulated : ctaid=(67,0,0) tid=(31,0,0)
GPGPU-Sim PTX: 29100000 instructions simulated : ctaid=(70,0,0) tid=(63,0,0)
GPGPU-Sim PTX: 29200000 instructions simulated : ctaid=(68,0,0) tid=(95,0,0)
GPGPU-Sim uArch: cycles simulated: 97500  inst.: 29157248 (ipc=299.0) sim_rate=335140 (inst/sec) elapsed = 0:0:01:27 / Tue Mar 22 13:10:27 2016
GPGPU-Sim PTX: 29300000 instructions simulated : ctaid=(81,0,0) tid=(31,0,0)
GPGPU-Sim PTX: 29400000 instructions simulated : ctaid=(77,0,0) tid=(63,0,0)
GPGPU-Sim PTX: 29500000 instructions simulated : ctaid=(83,0,0) tid=(31,0,0)
GPGPU-Sim uArch: cycles simulated: 98500  inst.: 29444192 (ipc=298.9) sim_rate=334593 (inst/sec) elapsed = 0:0:01:28 / Tue Mar 22 13:10:28 2016
GPGPU-Sim uArch: Shader 4 finished CTA #1 (98955,0), 2 CTAs running
GPGPU-Sim uArch: core:  4, cta: 1 initialized @(98956,0)
GPGPU-Sim uArch: Shader 4 finished CTA #0 (98988,0), 2 CTAs running
GPGPU-Sim uArch: core:  4, cta: 0 initialized @(98989,0)
GPGPU-Sim uArch: Shader 4 finished CTA #2 (98993,0), 2 CTAs running
GPGPU-Sim uArch: core:  4, cta: 2 initialized @(98994,0)
GPGPU-Sim uArch: Shader 5 finished CTA #2 (99247,0), 2 CTAs running
GPGPU-Sim uArch: core:  5, cta: 2 initialized @(99248,0)
GPGPU-Sim uArch: Shader 13 finished CTA #1 (99253,0), 2 CTAs running
GPGPU-Sim uArch: core: 13, cta: 1 initialized @(99254,0)
GPGPU-Sim uArch: Shader 1 finished CTA #0 (99271,0), 2 CTAs running
GPGPU-Sim uArch: core:  1, cta: 0 initialized @(99272,0)
GPGPU-Sim uArch: Shader 5 finished CTA #1 (99289,0), 2 CTAs running
GPGPU-Sim uArch: core:  5, cta: 1 initialized @(99290,0)
GPGPU-Sim uArch: Shader 13 finished CTA #0 (99292,0), 2 CTAs running
GPGPU-Sim uArch: core: 13, cta: 0 initialized @(99293,0)
GPGPU-Sim uArch: Shader 10 finished CTA #0 (99300,0), 2 CTAs running
GPGPU-Sim uArch: core: 10, cta: 0 initialized @(99301,0)
GPGPU-Sim uArch: Shader 1 finished CTA #1 (99301,0), 2 CTAs running
GPGPU-Sim uArch: core:  1, cta: 1 initialized @(99302,0)
GPGPU-Sim uArch: Shader 5 finished CTA #0 (99310,0), 2 CTAs running
GPGPU-Sim uArch: core:  5, cta: 0 initialized @(99311,0)
GPGPU-Sim uArch: Shader 13 finished CTA #2 (99313,0), 2 CTAs running
GPGPU-Sim uArch: core: 13, cta: 2 initialized @(99314,0)
GPGPU-Sim uArch: Shader 0 finished CTA #0 (99328,0), 2 CTAs running
GPGPU-Sim uArch: core:  0, cta: 0 initialized @(99329,0)
GPGPU-Sim uArch: Shader 1 finished CTA #2 (99337,0), 2 CTAs running
GPGPU-Sim uArch: core:  1, cta: 2 initialized @(99338,0)
GPGPU-Sim uArch: Shader 10 finished CTA #2 (99348,0), 2 CTAs running
GPGPU-Sim uArch: core: 10, cta: 2 initialized @(99349,0)
GPGPU-Sim uArch: Shader 10 finished CTA #1 (99364,0), 2 CTAs running
GPGPU-Sim uArch: Shader 11 finished CTA #0 (99364,0), 2 CTAs running
GPGPU-Sim uArch: core: 11, cta: 0 initialized @(99365,0)
GPGPU-Sim uArch: core: 10, cta: 1 initialized @(99365,0)
GPGPU-Sim uArch: Shader 0 finished CTA #1 (99376,0), 2 CTAs running
GPGPU-Sim uArch: core:  0, cta: 1 initialized @(99377,0)
GPGPU-Sim uArch: Shader 11 finished CTA #2 (99388,0), 2 CTAs running
GPGPU-Sim uArch: core: 11, cta: 2 initialized @(99389,0)
GPGPU-Sim uArch: Shader 0 finished CTA #2 (99391,0), 2 CTAs running
GPGPU-Sim uArch: Shader 14 finished CTA #1 (99391,0), 2 CTAs running
GPGPU-Sim uArch: core: 14, cta: 1 initialized @(99392,0)
GPGPU-Sim uArch: core:  0, cta: 2 initialized @(99392,0)
GPGPU-Sim uArch: Shader 3 finished CTA #0 (99397,0), 2 CTAs running
[...]
traffic_breakdown_memtocore[GLOBAL_ACC_R] = 250920 {136:1845,}
traffic_breakdown_memtocore[GLOBAL_ACC_W] = 196608 {8:24576,}
traffic_breakdown_memtocore[INST_ACC_R] = 2736864 {136:20124,}
maxmrqlatency = 144 
maxdqlatency = 0 
maxmflatency = 700 
averagemflatency = 252 
max_icnt2mem_latency = 298 
max_icnt2sh_latency = 381749 
mrq_lat_table:2838 	228 	280 	1708 	1549 	1566 	1192 	13 	0 	0 	0 	0 	0 	0 	0 	0 	0 	0 	0 	0 	0 	0 	0 	0 	0 	0 	0 	0 	0 	0 	0 	0 	
dq_lat_table:0 	0 	0 	0 	0 	0 	0 	0 	0 	0 	0 	0 	0 	0 	0 	0 	0 	0 	0 	0 	0 	0 	0 	0 	0 	0 	0 	0 	0 	0 	0 	0 	
mf_lat_table:0 	0 	0 	0 	0 	0 	0 	17192 	8840 	404 	0 	0 	0 	0 	0 	0 	0 	0 	0 	0 	0 	0 	0 	0 	0 	0 	0 	0 	0 	0 	0 	0 	
icnt2mem_lat_table:0 	0 	0 	22361 	1079 	8626 	13473 	950 	71 	0 	0 	0 	0 	0 	0 	0 	0 	0 	0 	0 	0 	0 	0 	0 	
icnt2sh_lat_table:0 	0 	0 	603 	635 	606 	16 	0 	0 	0 	0 	0 	0 	0 	0 	2880 	2880 	11520 	7296 	0 	0 	0 	0 	0 	
mf_lat_pw_table:0 	0 	0 	0 	0 	0 	0 	51 	28 	0 	0 	0 	0 	0 	0 	0 	0 	0 	0 	0 	0 	0 	0 	0 	0 	0 	0 	0 	0 	0 	0 	0 	
maximum concurrent accesses to same row:
dram[0]:         7         8         6         5        10        10         0         0         0         0         0         0         0         0         0         0 
dram[1]:         8         8         6         4        10        10         0         0         0         0         0         0         0         0         0         0 
dram[2]:         8         8         6         4        10        12         0         0         0         0         0         0         0         0         0         0 
dram[3]:         8         8         6         4        10        12         0         0         0         0         0         0         0         0         0         0 
dram[4]:         8         8         6         4        10        12         0         0         0         0         0         0         0         0         0         0 
dram[5]:         7         8         6         4        10        12         0         0         0         0         0         0         0         0         0         0 
maximum service time to same row:
dram[0]:    138243    134076    184325    218866    336150    336039      3285      3322    101591    101753    182615    221594     57772     57908     57835     57869 
dram[1]:    137939    133317    183795    218150    335978    336128      3288      3304    101576    101715    182626    221568     57788     57777     57753     57809 
dram[2]:    137225    132611    182894    217452    336009    336262      3281      3331    101735    101719    182969    221641     57800     57841     57854     57869 
dram[3]:    136741    131963    221087    216825    336192    337082      3285      3316    101746    101710    221576    221638     57766     57774     57834     57846 
dram[4]:    136105    131239    220397    216047    336091    337059      3319      3355    101709    101738    221584    221632     57791     57803     57779     57954 
dram[5]:    134529    130402    219641    215275    336028    337122      3307      3353    101709    101726    221591    221647     57791     57760     57779     57967 
average row accesses per activate:
dram[0]: 42.250000 84.000000 83.000000 82.500000 60.000000 60.000000 32.000000 32.000000 32.000000 32.000000 32.000000 32.000000 72.000000 72.000000 160.000000 160.000000 
dram[1]: 84.000000 84.000000 83.000000 82.000000 60.000000 60.000000 32.000000 32.000000 32.000000 32.000000 32.000000 32.000000 72.000000 72.000000 160.000000 160.000000 
dram[2]: 84.000000 84.000000 83.000000 82.000000 60.000000 61.000000 32.000000 32.000000 32.000000 32.000000 32.000000 32.000000 72.000000 71.000000 160.000000 160.000000 
dram[3]: 84.000000 84.000000 83.000000 82.000000 60.000000 56.000000 32.000000 32.000000 32.000000 32.000000 32.000000 32.000000 72.000000 80.000000 160.000000 160.000000 
dram[4]: 84.000000 84.000000 83.000000 82.000000 60.000000 56.000000 32.000000 32.000000 32.000000 32.000000 32.000000 32.000000 72.000000 80.000000 160.000000 160.000000 
dram[5]: 83.500000 84.000000 83.000000 82.000000 60.000000 56.000000 32.000000 32.000000 32.000000 32.000000 32.000000 32.000000 72.000000 80.000000 160.000000 160.000000 
average row locality = 9374/134 = 69.955223
number of total memory accesses made:
dram[0]:         0         0         0         0         0         0         0         0         0         0         0         0         0         0         0         0 
dram[1]:         0         0         0         0         0         0         0         0         0         0         0         0         0         0         0         0 
dram[2]:         0         0         0         0         0         0         0         0         0         0         0         0         0         0         0         0 
dram[3]:         0         0         0         0         0         0         0         0         0         0         0         0         0         0         0         0 
dram[4]:         0         0         0         0         0         0         0         0         0         0         0         0         0         0         0         0 
dram[5]:         0         0         0         0         0         0         0         0         0         0         0         0         0         0         0         0 
total accesses: 0
min_bank_accesses = 0!
min_chip_accesses = 0!
number of total read accesses:
dram[0]:        41        40        38        37        32        32        32        32        32        32        32        32        32        32        32        32 
dram[1]:        40        40        38        36        32        32        32        32        32        32        32        32        32        32        32        32 
dram[2]:        40        40        38        36        32        34        32        32        32        32        32        32        32        31        32        32 
dram[3]:        40        40        38        36        32        32        32        32        32        32        32        32        32        32        32        32 
dram[4]:        40        40        38        36        32        32        32        32        32        32        32        32        32        32        32        32 
dram[5]:        39        40        38        36        32        32        32        32        32        32        32        32        32        32        32        32 
total reads: 3230
bank skew: 41/31 = 1.32
chip skew: 540/537 = 1.01
number of total write accesses:
dram[0]:       128       128       128       128        88        88         0         0         0         0         0         0        40        40       128       128 
dram[1]:       128       128       128       128        88        88         0         0         0         0         0         0        40        40       128       128 
dram[2]:       128       128       128       128        88        88         0         0         0         0         0         0        40        40       128       128 
dram[3]:       128       128       128       128        88        80         0         0         0         0         0         0        40        48       128       128 
dram[4]:       128       128       128       128        88        80         0         0         0         0         0         0        40        48       128       128 
dram[5]:       128       128       128       128        88        80         0         0         0         0         0         0        40        48       128       128 
total reads: 6144
min_bank_accesses = 0!
chip skew: 1024/1024 = 1.00
average mf latency per bank:
dram[0]:        766       764       733       723       695       705       358       356       336       333       330       315       752       826       840       967
dram[1]:        757       738       717       720       690       695       290       284       283       274       281       281       813       741       835       881
dram[2]:        739       732       707       718       680       688       352       344       346       359       332       348       827       775       857       873
dram[3]:        745       738       730       736       699       667       292       290       275       274       276       279       737       775       880       864
dram[4]:        747       751       731       759       710       678       386       352       337       336       327       326       740       834       845       923
dram[5]:        759       764       713       726       687       682       289       287       281       285       272       284       750       808       869       916
maximum mf latency per bank:
dram[0]:        489       525       425       403       368       395       347       366       317       307       309       308       608       682       573       623
dram[1]:        512       455       434       393       380       401       391       364       317       294       324       316       631       584       608       601
dram[2]:        465       447       389       371       359       393       364       353       311       326       297       306       677       659       641       631
dram[3]:        472       431       432       400       435       384       354       386       302       306       327       327       592       646       521       577
dram[4]:        465       451       406       516       424       419       429       340       313       313       325       315       587       700       538       640
dram[5]:        472       508       414       449       398       390       360       337       332       338       299       318       639       663       611       663

Number of Memory Banks Accessed per Memory Operation per Warp (from 0):
0	0	0	0	0	0	0	0	0	0	0	0	0	0	0	0	0	0	0	0	0	0	0	0	0	0	0	0	0	0	0	0	0	0	0	0	0	0	0	0	0	0	0	0	0	0	0	0	0	0	0	0	0	0	0	0	0	0	0	0	0	0	0	0	0	0	0	0	0	0	0	0	0	0	0	0	0	0	0	0	0	0	0	0	0	0	0	0	0	0	0	0	0	0	0	0	
Average # of Memory Banks Accessed per Memory Operation per Warp=-nan

position of mrq chosen
0	0	0	0	0	0	0	0	0	0	0	0	0	0	0	0	

average position of mrq chosen = -nan
Memory Partition 0: 
Cache L2_bank_000:
MSHR contents

Cache L2_bank_001:
MSHR contents

In Dram Latency Queue (total = 0): 
DRAM[0]: 16 bks, busW=4 BL=8 CL=12, tRRD=2 tCCD=6, tRCD=12 tRAS=28 tRP=12 tRC=40
n_cmd=503909 n_nop=501773 n_act=24 n_pre=8 n_req=1564 n_rd=1080 n_write=1024 bw_util=0.008351
n_activity=11752 dram_eff=0.3581
bk0: 82a 502298i bk1: 80a 502373i bk2: 76a 502612i bk3: 74a 502524i bk4: 64a 502996i bk5: 64a 502896i bk6: 64a 503611i bk7: 64a 503564i bk8: 64a 503752i bk9: 64a 503699i bk10: 64a 503747i bk11: 64a 503742i bk12: 64a 503160i bk13: 64a 503159i bk14: 64a 502256i bk15: 64a 502201i 
dram_util_bins: 0 0 0 0 0 0 0 0 0 0
dram_eff_bins: 0 0 0 0 0 0 0 0 0 0
mrqq: max=16 avg=0.101463
Memory Partition 1: 
Cache L2_bank_002:
MSHR contents

Cache L2_bank_003:
MSHR contents

In Dram Latency Queue (total = 0): 
DRAM[1]: 16 bks, busW=4 BL=8 CL=12, tRRD=2 tCCD=6, tRCD=12 tRAS=28 tRP=12 tRC=40
n_cmd=503909 n_nop=501781 n_act=22 n_pre=6 n_req=1562 n_rd=1076 n_write=1024 bw_util=0.008335
n_activity=11528 dram_eff=0.3643
bk0: 80a 502389i bk1: 80a 502335i bk2: 76a 502570i bk3: 72a 502545i bk4: 64a 502953i bk5: 64a 502929i bk6: 64a 503612i bk7: 64a 503559i bk8: 64a 503737i bk9: 64a 503713i bk10: 64a 503742i bk11: 64a 503740i bk12: 64a 503225i bk13: 64a 503166i bk14: 64a 502293i bk15: 64a 502235i 
dram_util_bins: 0 0 0 0 0 0 0 0 0 0
dram_eff_bins: 0 0 0 0 0 0 0 0 0 0
mrqq: max=16 avg=0.0982042
Memory Partition 2: 
Cache L2_bank_004:
MSHR contents

Cache L2_bank_005:
MSHR contents

In Dram Latency Queue (total = 0): 
DRAM[2]: 16 bks, busW=4 BL=8 CL=12, tRRD=2 tCCD=6, tRCD=12 tRAS=28 tRP=12 tRC=40
n_cmd=503909 n_nop=501779 n_act=22 n_pre=6 n_req=1563 n_rd=1078 n_write=1024 bw_util=0.008343
n_activity=11743 dram_eff=0.358
bk0: 80a 502407i bk1: 80a 502352i bk2: 76a 502533i bk3: 72a 502526i bk4: 64a 503040i bk5: 68a 502895i bk6: 64a 503623i bk7: 64a 503608i bk8: 64a 503748i bk9: 64a 503726i bk10: 64a 503755i bk11: 64a 503735i bk12: 64a 503207i bk13: 62a 503139i bk14: 64a 502143i bk15: 64a 502091i 
dram_util_bins: 0 0 0 0 0 0 0 0 0 0
dram_eff_bins: 0 0 0 0 0 0 0 0 0 0
mrqq: max=16 avg=0.0901313
Memory Partition 3: 
Cache L2_bank_006:
MSHR contents

Cache L2_bank_007:
MSHR contents

In Dram Latency Queue (total = 0): 
DRAM[3]: 16 bks, busW=4 BL=8 CL=12, tRRD=2 tCCD=6, tRCD=12 tRAS=28 tRP=12 tRC=40
n_cmd=503909 n_nop=501781 n_act=22 n_pre=6 n_req=1562 n_rd=1076 n_write=1024 bw_util=0.008335
n_activity=11782 dram_eff=0.3565
bk0: 80a 502458i bk1: 80a 502301i bk2: 76a 502552i bk3: 72a 502539i bk4: 64a 502997i bk5: 64a 502964i bk6: 64a 503617i bk7: 64a 503578i bk8: 64a 503755i bk9: 64a 503698i bk10: 64a 503749i bk11: 64a 503732i bk12: 64a 503166i bk13: 64a 503065i bk14: 64a 502316i bk15: 64a 502224i 
dram_util_bins: 0 0 0 0 0 0 0 0 0 0
dram_eff_bins: 0 0 0 0 0 0 0 0 0 0
mrqq: max=16 avg=0.100254
Memory Partition 4: 
Cache L2_bank_008:
MSHR contents

Cache L2_bank_009:
MSHR contents

In Dram Latency Queue (total = 0): 
DRAM[4]: 16 bks, busW=4 BL=8 CL=12, tRRD=2 tCCD=6, tRCD=12 tRAS=28 tRP=12 tRC=40
n_cmd=503909 n_nop=501781 n_act=22 n_pre=6 n_req=1562 n_rd=1076 n_write=1024 bw_util=0.008335
n_activity=11655 dram_eff=0.3604
bk0: 80a 502418i bk1: 80a 502436i bk2: 76a 502556i bk3: 72a 502512i bk4: 64a 502975i bk5: 64a 503021i bk6: 64a 503656i bk7: 64a 503656i bk8: 64a 503735i bk9: 64a 503698i bk10: 64a 503755i bk11: 64a 503741i bk12: 64a 503145i bk13: 64a 503089i bk14: 64a 502316i bk15: 64a 502147i 
dram_util_bins: 0 0 0 0 0 0 0 0 0 0
dram_eff_bins: 0 0 0 0 0 0 0 0 0 0
mrqq: max=16 avg=0.110778
Memory Partition 5: 
Cache L2_bank_010:
MSHR contents

Cache L2_bank_011:
MSHR contents

In Dram Latency Queue (total = 0): 
DRAM[5]: 16 bks, busW=4 BL=8 CL=12, tRRD=2 tCCD=6, tRCD=12 tRAS=28 tRP=12 tRC=40
n_cmd=503909 n_nop=501783 n_act=22 n_pre=6 n_req=1561 n_rd=1074 n_write=1024 bw_util=0.008327
n_activity=11647 dram_eff=0.3603
bk0: 78a 502453i bk1: 80a 502417i bk2: 76a 502600i bk3: 72a 502561i bk4: 64a 502952i bk5: 64a 502898i bk6: 64a 503618i bk7: 64a 503597i bk8: 64a 503752i bk9: 64a 503713i bk10: 64a 503760i bk11: 64a 503757i bk12: 64a 503174i bk13: 64a 503098i bk14: 64a 502361i bk15: 64a 502236i 
dram_util_bins: 0 0 0 0 0 0 0 0 0 0
dram_eff_bins: 0 0 0 0 0 0 0 0 0 0
mrqq: max=16 avg=0.102917

========= L2 cache stats =========
L2_cache_bank[0]: Access = 4047, Miss = 271, Miss_rate = 0.067, Pending_hits = 429, Reservation_fails = 1541
L2_cache_bank[1]: Access = 3898, Miss = 269, Miss_rate = 0.069, Pending_hits = 423, Reservation_fails = 1496
L2_cache_bank[2]: Access = 3982, Miss = 270, Miss_rate = 0.068, Pending_hits = 426, Reservation_fails = 1461
L2_cache_bank[3]: Access = 3724, Miss = 268, Miss_rate = 0.072, Pending_hits = 420, Reservation_fails = 1321
L2_cache_bank[4]: Access = 4042, Miss = 270, Miss_rate = 0.067, Pending_hits = 430, Reservation_fails = 1504
L2_cache_bank[5]: Access = 3783, Miss = 269, Miss_rate = 0.071, Pending_hits = 423, Reservation_fails = 1141
L2_cache_bank[6]: Access = 3982, Miss = 270, Miss_rate = 0.068, Pending_hits = 426, Reservation_fails = 1471
L2_cache_bank[7]: Access = 3724, Miss = 268, Miss_rate = 0.072, Pending_hits = 420, Reservation_fails = 1211
L2_cache_bank[8]: Access = 4031, Miss = 270, Miss_rate = 0.067, Pending_hits = 426, Reservation_fails = 1427
L2_cache_bank[9]: Access = 3770, Miss = 268, Miss_rate = 0.071, Pending_hits = 421, Reservation_fails = 1332
L2_cache_bank[10]: Access = 3853, Miss = 269, Miss_rate = 0.070, Pending_hits = 423, Reservation_fails = 1282
L2_cache_bank[11]: Access = 3724, Miss = 268, Miss_rate = 0.072, Pending_hits = 420, Reservation_fails = 1337
L2_total_cache_accesses = 46560
L2_total_cache_misses = 3230
L2_total_cache_miss_rate = 0.0694
L2_total_cache_pending_hits = 5087
L2_total_cache_reservation_fails = 16524
L2_total_cache_breakdown:
	L2_cache_stats_breakdown[GLOBAL_ACC_R][HIT] = 300
	L2_cache_stats_breakdown[GLOBAL_ACC_R][HIT_RESERVED] = 8
	L2_cache_stats_breakdown[GLOBAL_ACC_R][MISS] = 1537
	L2_cache_stats_breakdown[CONST_ACC_R][HIT] = 11
	L2_cache_stats_breakdown[CONST_ACC_R][HIT_RESERVED] = 3
	L2_cache_stats_breakdown[CONST_ACC_R][MISS] = 1
	L2_cache_stats_breakdown[CONST_ACC_R][RESERVATION_FAIL] = 109
	L2_cache_stats_breakdown[GLOBAL_ACC_W][HIT] = 18432
	L2_cache_stats_breakdown[GLOBAL_ACC_W][HIT_RESERVED] = 4608
	L2_cache_stats_breakdown[GLOBAL_ACC_W][MISS] = 1536
	L2_cache_stats_breakdown[GLOBAL_ACC_W][RESERVATION_FAIL] = 2049
	L2_cache_stats_breakdown[INST_ACC_R][HIT] = 19500
	L2_cache_stats_breakdown[INST_ACC_R][HIT_RESERVED] = 468
	L2_cache_stats_breakdown[INST_ACC_R][MISS] = 156
	L2_cache_stats_breakdown[INST_ACC_R][RESERVATION_FAIL] = 14366
L2_cache_data_port_util = 0.021
L2_cache_fill_port_util = 0.003

icnt_total_pkts_mem_to_simt=134466
icnt_total_pkts_simt_to_mem=71136
LD_mem_lat_dist  0 0 0 0 0 0 0 0 0 0 0 0 0 0 0 0 0 0 0 0 0 0 0 0 0 0 0
ST_mem_lat_dist  0 0 0 0 0 0 0 0 0 0 0 0 0 0 0 0 0 0 0 0 0 0 0 0 0 0 0
----------------------------Interconnect-DETAILS--------------------------------
Class 0:
Packet latency average = 17.5531
	minimum = 6
	maximum = 242
Network latency average = 12.6768
	minimum = 6
	maximum = 213
Slowest packet = 5536
Flit latency average = 10.7542
	minimum = 6
	maximum = 212
Slowest flit = 44031
Fragmentation average = 0
	minimum = 0
	maximum = 0
Injected packet rate average = 0.00903442
	minimum = 0.00759136 (at node 12)
	maximum = 0.0106012 (at node 15)
Accepted packet rate average = 0.00903442
	minimum = 0.00759136 (at node 12)
	maximum = 0.0106012 (at node 15)
Injected flit rate average = 0.0199473
	minimum = 0.0116149 (at node 12)
	maximum = 0.0314813 (at node 19)
Accepted flit rate average= 0.0199473
	minimum = 0.0151198 (at node 18)
	maximum = 0.0246261 (at node 3)
Injected packet length average = 2.20793
Accepted packet length average = 2.20793
Total in-flight flits = 0 (0 measured)
====== Overall Traffic Statistics ======
====== Traffic class 0 ======
Packet latency average = 17.5531 (1 samples)
	minimum = 6 (1 samples)
	maximum = 242 (1 samples)
Network latency average = 12.6768 (1 samples)
	minimum = 6 (1 samples)
	maximum = 213 (1 samples)
Flit latency average = 10.7542 (1 samples)
	minimum = 6 (1 samples)
	maximum = 212 (1 samples)
Fragmentation average = 0 (1 samples)
	minimum = 0 (1 samples)
	maximum = 0 (1 samples)
Injected packet rate average = 0.00903442 (1 samples)
	minimum = 0.00759136 (1 samples)
	maximum = 0.0106012 (1 samples)
Accepted packet rate average = 0.00903442 (1 samples)
	minimum = 0.00759136 (1 samples)
	maximum = 0.0106012 (1 samples)
Injected flit rate average = 0.0199473 (1 samples)
	minimum = 0.0116149 (1 samples)
	maximum = 0.0314813 (1 samples)
Accepted flit rate average = 0.0199473 (1 samples)
	minimum = 0.0151198 (1 samples)
	maximum = 0.0246261 (1 samples)
Injected packet size average = 2.20793 (1 samples)
Accepted packet size average = 2.20793 (1 samples)
Hops average = 1 (1 samples)
----------------------------END-of-Interconnect-DETAILS-------------------------
GPGPU-Sim API: Stream Manager State


gpgpu_simulation_time = 0 days, 0 hrs, 6 min, 3 sec (363 sec)
gpgpu_simulation_rate = 346365 (inst/sec)
gpgpu_simulation_rate = 1051 (cycle/sec)
GPGPU-Sim: detected inactive GPU simulation thread

== GPU Timing ==
GPU init                 : 0.013000
Host input buffer alloc  : 0.005000
-----
Host output buffer alloc : 0.005000
GPU memory alloc         : 0.003000
Data copy in             : 6.690000
Kernel execution         : 360553.750000
Data copy out            : 6.698000
Last hasing stage        : 0.000000
GPU Proc. Time (gpu init and input alloc are not included):  360567.187500 

== CPU Execution Context ==
Threads       : 128
Blocks        : 384
Total Threads : 49152
Total Size    : 196656
Chunk Size    : 52
Padding       : 0

CPU Processing time(ms):    39.098000 

Output size: 196608
Test PASSED
CPU GPU
FD FD
DD DD
2 2
F9 F9
