

        *** GPGPU-Sim Simulator Version 3.2.2  [build 0] ***


GPGPU-Sim PTX: simulation mode 0 (can change with PTX_SIM_MODE_FUNC environment variable:
               1=functional simulation only, 0=detailed performance simulator)
GPGPU-Sim: Configuration options:

-network_mode                           1 # Interconnection network mode
-inter_config_file   config_fermi_islip.icnt # Interconnection network config file
-gpgpu_ptx_use_cuobjdump                    1 # Use cuobjdump to extract ptx and sass from binaries
-gpgpu_experimental_lib_support                    0 # Try to extract code from cuda libraries [Broken because of unknown cudaGetExportTable]
-gpgpu_ptx_convert_to_ptxplus                    0 # Convert SASS (native ISA) to ptxplus and run ptxplus
-gpgpu_ptx_force_max_capability                   20 # Force maximum compute capability
-gpgpu_ptx_inst_debug_to_file                    0 # Dump executed instructions' debug information to file
-gpgpu_ptx_inst_debug_file       inst_debug.txt # Executed instructions' debug output file
-gpgpu_ptx_inst_debug_thread_uid                    1 # Thread UID for executed instructions' debug output
-gpgpu_simd_model                       1 # 1 = post-dominator
-gpgpu_shader_core_pipeline              1536:32 # shader core pipeline config, i.e., {<nthread>:<warpsize>}
-gpgpu_tex_cache:l1  4:128:24,L:R:m:N:L,F:128:4,128:2 # per-shader L1 texture cache  (READ-ONLY) config  {<nsets>:<bsize>:<assoc>,<rep>:<wr>:<alloc>:<wr_alloc>,<mshr>:<N>:<merge>,<mq>:<rf>}
-gpgpu_const_cache:l1 64:64:2,L:R:f:N:L,A:2:32,4 # per-shader L1 constant memory cache  (READ-ONLY) config  {<nsets>:<bsize>:<assoc>,<rep>:<wr>:<alloc>:<wr_alloc>,<mshr>:<N>:<merge>,<mq>} 
-gpgpu_cache:il1     4:128:4,L:R:f:N:L,A:2:32,4 # shader L1 instruction cache config  {<nsets>:<bsize>:<assoc>,<rep>:<wr>:<alloc>:<wr_alloc>,<mshr>:<N>:<merge>,<mq>} 
-gpgpu_cache:dl1     32:128:4,L:L:m:N:H,A:32:8,8:2,0,0:0:1:1:0:1,1:4:8:16:32:64,/sciclone/data10/hwang07/GPU_RESEARCH/swl/swl_outputs/RESULTS/ # per-shader L1 data cache config  {<nsets>:<bsize>:<assoc>,<rep>:<wr>:<alloc>:<wr_alloc>,<mshr>:<N>:<merge>,<mq> | none}
-gpgpu_cache:dl1PrefL1                 none # per-shader L1 data cache config  {<nsets>:<bsize>:<assoc>,<rep>:<wr>:<alloc>:<wr_alloc>,<mshr>:<N>:<merge>,<mq> | none}
-gpgpu_cache:dl1PreShared                 none # per-shader L1 data cache config  {<nsets>:<bsize>:<assoc>,<rep>:<wr>:<alloc>:<wr_alloc>,<mshr>:<N>:<merge>,<mq> | none}
-gmem_skip_L1D                          0 # global memory access skip L1D cache (implements -Xptxas -dlcm=cg, default=no skip)
-gpgpu_perfect_mem                      0 # enable perfect memory mode (no cache miss)
-n_regfile_gating_group                    4 # group of lanes that should be read/written together)
-gpgpu_clock_gated_reg_file                    0 # enable clock gated reg file for power calculations
-gpgpu_clock_gated_lanes                    0 # enable clock gated lanes for power calculations
-gpgpu_shader_registers                32768 # Number of registers per shader core. Limits number of concurrent CTAs. (default 8192)
-gpgpu_shader_cta                       8 # Maximum number of concurrent CTAs in shader (default 8)
-gpgpu_num_cta_barriers                   16 # Maximum number of named barriers per CTA (default 16)
-gpgpu_n_clusters                      15 # number of processing clusters
-gpgpu_n_cores_per_cluster                    1 # number of simd cores per cluster
-gpgpu_n_cluster_ejection_buffer_size                    8 # number of packets in ejection buffer
-gpgpu_n_ldst_response_buffer_size                    2 # number of response packets in ld/st unit ejection buffer
-gpgpu_shmem_size                   16384 # Size of shared memory per shader core (default 16kB)
-gpgpu_shmem_size                   49152 # Size of shared memory per shader core (default 16kB)
-gpgpu_shmem_size_PrefL1                16384 # Size of shared memory per shader core (default 16kB)
-gpgpu_shmem_size_PrefShared                16384 # Size of shared memory per shader core (default 16kB)
-gpgpu_shmem_num_banks                   32 # Number of banks in the shared memory in each shader core (default 16)
-gpgpu_shmem_limited_broadcast                    0 # Limit shared memory to do one broadcast per cycle (default on)
-gpgpu_shmem_warp_parts                    1 # Number of portions a warp is divided into for shared memory bank conflict check 
-gpgpu_warpdistro_shader                   -1 # Specify which shader core to collect the warp size distribution from
-gpgpu_warp_issue_shader                    0 # Specify which shader core to collect the warp issue distribution from
-gpgpu_local_mem_map                    1 # Mapping from local memory space address to simulated GPU physical address space (default = enabled)
-gpgpu_num_reg_banks                   16 # Number of register banks (default = 8)
-gpgpu_reg_bank_use_warp_id                    0 # Use warp ID in mapping registers to banks (default = off)
-gpgpu_operand_collector_num_units_sp                    6 # number of collector units (default = 4)
-gpgpu_operand_collector_num_units_sfu                    8 # number of collector units (default = 4)
-gpgpu_operand_collector_num_units_mem                    2 # number of collector units (default = 2)
-gpgpu_operand_collector_num_units_gen                    0 # number of collector units (default = 0)
-gpgpu_operand_collector_num_in_ports_sp                    2 # number of collector unit in ports (default = 1)
-gpgpu_operand_collector_num_in_ports_sfu                    1 # number of collector unit in ports (default = 1)
-gpgpu_operand_collector_num_in_ports_mem                    1 # number of collector unit in ports (default = 1)
-gpgpu_operand_collector_num_in_ports_gen                    0 # number of collector unit in ports (default = 0)
-gpgpu_operand_collector_num_out_ports_sp                    2 # number of collector unit in ports (default = 1)
-gpgpu_operand_collector_num_out_ports_sfu                    1 # number of collector unit in ports (default = 1)
-gpgpu_operand_collector_num_out_ports_mem                    1 # number of collector unit in ports (default = 1)
-gpgpu_operand_collector_num_out_ports_gen                    0 # number of collector unit in ports (default = 0)
-gpgpu_coalesce_arch                   13 # Coalescing arch (default = 13, anything else is off for now)
-gpgpu_num_sched_per_core                    2 # Number of warp schedulers per core
-gpgpu_max_insn_issue_per_warp                    1 # Max number of instructions that can be issued per warp in one cycle by scheduler
-gpgpu_simt_core_sim_order                    1 # Select the simulation order of cores in a cluster (0=Fix, 1=Round-Robin)
-gpgpu_pipeline_widths        2,1,1,2,1,1,2 # Pipeline widths ID_OC_SP,ID_OC_SFU,ID_OC_MEM,OC_EX_SP,OC_EX_SFU,OC_EX_MEM,EX_WB
-gpgpu_num_sp_units                     2 # Number of SP units (default=1)
-gpgpu_num_sfu_units                    1 # Number of SF units (default=1)
-gpgpu_num_mem_units                    1 # Number if ldst units (default=1) WARNING: not hooked up to anything
-gpgpu_scheduler      warp_limiting:2:2:0 # Scheduler configuration: < lrr | gto | two_level_active > If two_level_active:<num_active_warps>:<inner_prioritization>:<outer_prioritization>For complete list of prioritization values see shader.h enum scheduler_prioritization_typeDefault: gto
-gpgpu_dram_scheduler                    1 # 0 = fifo, 1 = FR-FCFS (defaul)
-gpgpu_dram_partition_queues              8:8:8:8 # i2$:$2d:d2$:$2i
-l2_ideal                               0 # Use a ideal L2 cache that always hit
-gpgpu_cache:dl2     64:128:8,L:B:m:W:L,A:32:4,4:0,32 # unified banked L2 data cache config  {<nsets>:<bsize>:<assoc>,<rep>:<wr>:<alloc>:<wr_alloc>,<mshr>:<N>:<merge>,<mq>}
-gpgpu_cache:dl2_texture_only                    0 # L2 cache used for texture only
-gpgpu_n_mem                            6 # number of memory modules (e.g. memory controllers) in gpu
-gpgpu_n_sub_partition_per_mchannel                    2 # number of memory subpartition in each memory module
-gpgpu_n_mem_per_ctrlr                    2 # number of memory chips per memory controller
-gpgpu_memlatency_stat                   14 # track and display latency statistics 0x2 enables MC, 0x4 enables queue logs
-gpgpu_frfcfs_dram_sched_queue_size                   16 # 0 = unlimited (default); # entries per chip
-gpgpu_dram_return_queue_size                  116 # 0 = unlimited (default); # entries per chip
-gpgpu_dram_buswidth                    4 # default = 4 bytes (8 bytes per cycle at DDR)
-gpgpu_dram_burst_length                    8 # Burst length of each DRAM request (default = 4 data bus cycle)
-dram_data_command_freq_ratio                    4 # Frequency ratio between DRAM data bus and command bus (default = 2 times, i.e. DDR)
-gpgpu_dram_timing_opt nbk=16:CCD=2:RRD=6:RCD=12:RAS=28:RP=12:RC=40: CL=12:WL=4:CDLR=5:WR=12:nbkgrp=4:CCDL=3:RTPL=2 # DRAM timing parameters = {nbk:tCCD:tRRD:tRCD:tRAS:tRP:tRC:CL:WL:tCDLR:tWR:nbkgrp:tCCDL:tRTPL}
-rop_latency                          120 # ROP queue latency (default 85)
-dram_latency                         100 # DRAM latency (default 30)
-gpgpu_mem_addr_mapping dramid@8;00000000.00000000.00000000.00000000.0000RRRR.RRRRRRRR.BBBCCCCB.CCSSSSSS # mapping memory address to dram model {dramid@<start bit>;<memory address map>}
-gpgpu_mem_addr_test                    0 # run sweep test to check address mapping for aliased address
-gpgpu_mem_address_mask                    1 # 0 = old addressing mask, 1 = new addressing mask, 2 = new add. mask + flipped bank sel and chip sel bits
-gpuwattch_xml_file  gpuwattch_gtx480.xml # GPUWattch XML file
-power_simulation_enabled                    0 # Turn on power simulator (1=On, 0=Off)
-power_per_cycle_dump                    0 # Dump detailed power output each cycle
-power_trace_enabled                    0 # produce a file for the power trace (1=On, 0=Off)
-power_trace_zlevel                     6 # Compression level of the power trace output log (0=no comp, 9=highest)
-steady_power_levels_enabled                    0 # produce a file for the steady power levels (1=On, 0=Off)
-steady_state_definition                  8:4 # allowed deviation:number of samples
-gpgpu_max_cycle                        0 # terminates gpu simulation early (0 = no limit)
-gpgpu_max_insn                         0 # terminates gpu simulation early (0 = no limit)
-gpgpu_max_cta                          0 # terminates gpu simulation early (0 = no limit)
-gpgpu_runtime_stat                   500 # display runtime statistics such as dram utilization {<freq>:<flag>}
-liveness_message_freq                    1 # Minimum number of seconds between simulation liveness messages (0 = always print)
-gpgpu_flush_l1_cache                    0 # Flush L1 cache at the end of each kernel call
-gpgpu_flush_l2_cache                    0 # Flush L2 cache at the end of each kernel call
-gpgpu_deadlock_detect                    1 # Stop the simulation at deadlock (1=on (default), 0=off)
-gpgpu_ptx_instruction_classification                    0 # if enabled will classify ptx instruction types per kernel (Max 255 kernels now)
-gpgpu_ptx_sim_mode                     0 # Select between Performance (default) or Functional simulation (1)
-gpgpu_clock_domains 700.0:700.0:700.0:924.0 # Clock Domain Frequencies in MhZ {<Core Clock>:<ICNT Clock>:<L2 Clock>:<DRAM Clock>}
-gpgpu_max_concurrent_kernel                    8 # maximum kernels that can run concurrently on GPU
-gpgpu_cflog_interval                    0 # Interval between each snapshot in control flow logger
-visualizer_enabled                     0 # Turn on visualizer output (1=On, 0=Off)
-visualizer_outputfile                 NULL # Specifies the output log file for visualizer
-visualizer_zlevel                      6 # Compression level of the visualizer output log (0=no comp, 9=highest)
-trace_enabled                          0 # Turn on traces
-trace_components                    none # comma seperated list of traces to enable. Complete list found in trace_streams.tup. Default none
-trace_sampling_core                    0 # The core which is printed using CORE_DPRINTF. Default 0
-trace_sampling_memory_partition                   -1 # The memory partition which is printed using MEMPART_DPRINTF. Default -1 (i.e. all)
-enable_ptx_file_line_stats                    1 # Turn on PTX source line statistic profiling. (1 = On)
-ptx_line_stats_filename gpgpu_inst_stats.txt # Output file for PTX source line statistics.
-save_embedded_ptx                      0 # saves ptx files embedded in binary as <n>.ptx
-keep                                   0 # keep intermediate files created by GPGPU-Sim when interfacing with external programs
-gpgpu_ptx_save_converted_ptxplus                    0 # Saved converted ptxplus to a file
-ptx_opcode_latency_int         4,13,4,5,145 # Opcode latencies for integers <ADD,MAX,MUL,MAD,DIV>Default 1,1,19,25,145
-ptx_opcode_latency_fp          4,13,4,5,39 # Opcode latencies for single precision floating points <ADD,MAX,MUL,MAD,DIV>Default 1,1,1,1,30
-ptx_opcode_latency_dp         8,19,8,8,330 # Opcode latencies for double precision floating points <ADD,MAX,MUL,MAD,DIV>Default 8,8,8,8,335
-ptx_opcode_initiation_int            1,2,2,1,8 # Opcode initiation intervals for integers <ADD,MAX,MUL,MAD,DIV>Default 1,1,4,4,32
-ptx_opcode_initiation_fp            1,2,1,1,4 # Opcode initiation intervals for single precision floating points <ADD,MAX,MUL,MAD,DIV>Default 1,1,1,1,5
-ptx_opcode_initiation_dp         8,16,8,8,130 # Opcode initiation intervals for double precision floating points <ADD,MAX,MUL,MAD,DIV>Default 8,8,8,8,130
DRAM Timing Options:
nbk                                    16 # number of banks
CCD                                     2 # column to column delay
RRD                                     6 # minimal delay between activation of rows in different banks
RCD                                    12 # row to column delay
RAS                                    28 # time needed to activate row
RP                                     12 # time needed to precharge (deactivate) row
RC                                     40 # row cycle time
CDLR                                    5 # switching from write to read (changes tWTR)
WR                                     12 # last data-in to row precharge
CL                                     12 # CAS latency
WL                                      4 # Write latency
nbkgrp                                  4 # number of bank groups
CCDL                                    3 # column to column delay between accesses to different bank groups
RTPL                                    2 # read to precharge delay between accesses to different bank groups
Total number of memory sub partition = 12
addr_dec_mask[CHIP]  = 0000000000000000 	high:64 low:0
addr_dec_mask[BK]    = 000000000000e100 	high:16 low:8
addr_dec_mask[ROW]   = 000000000fff0000 	high:28 low:16
addr_dec_mask[COL]   = 0000000000001eff 	high:13 low:0
addr_dec_mask[BURST] = 000000000000003f 	high:6 low:0
sub_partition_id_mask = 0000000000000100
GPGPU-Sim uArch: clock freqs: 700000000.000000:700000000.000000:700000000.000000:924000000.000000
GPGPU-Sim uArch: clock periods: 0.00000000142857142857:0.00000000142857142857:0.00000000142857142857:0.00000000108225108225
*** Initializing Memory Statistics ***
GPGPU-Sim uArch: interconnect node map (shaderID+MemID to icntID)
GPGPU-Sim uArch: Memory nodes ID start from index: 15
GPGPU-Sim uArch:    0   1   2   3   4
GPGPU-Sim uArch:    5   6   7   8   9
GPGPU-Sim uArch:   10  11  12  13  14
GPGPU-Sim uArch:   15  16  17  18  19
GPGPU-Sim uArch:   20  21  22  23  24
GPGPU-Sim uArch:   25  26
GPGPU-Sim uArch: interconnect node reverse map (icntID to shaderID+MemID)
GPGPU-Sim uArch: Memory nodes start from ID: 15
GPGPU-Sim uArch:    0   1   2   3   4
GPGPU-Sim uArch:    5   6   7   8   9
GPGPU-Sim uArch:   10  11  12  13  14
GPGPU-Sim uArch:   15  16  17  18  19
GPGPU-Sim uArch:   20  21  22  23  24
GPGPU-Sim uArch:   25  26
e389dacb331e7fcddf4abf4a164344f1  /sciclone/data10/hwang07/adwait/applications/benchmarks/CUDA/BlackScholes/gpgpu_ptx_sim__BlackScholes
GPGPU-Sim uArch: performance model initialization complete.
GPGPU-Sim PTX: __cudaRegisterFatBinary, fat_cubin_handle = 1, filename=BlackScholes.cu
self exe links to: /sciclone/data10/hwang07/adwait/applications/benchmarks/CUDA/BlackScholes/gpgpu_ptx_sim__BlackScholes
Running md5sum using "md5sum /sciclone/data10/hwang07/adwait/applications/benchmarks/CUDA/BlackScholes/gpgpu_ptx_sim__BlackScholes "
Parsing file _cuobjdump_complete_output_qOLA0J
######### cuobjdump parser ########
## Adding new section ELF
Adding arch: sm_20
Adding identifier: BlackScholes.cu
## Adding new section PTX
Adding ptx filename: _cuobjdump_1.ptx
Adding arch: sm_20
Adding identifier: BlackScholes.cu
Done parsing!!!
GPGPU-Sim PTX: __cudaRegisterFunction _Z15BlackScholesGPUPfS_S_S_S_ffi : hostFun 0x0x405752, fat_cubin_handle = 1
GPGPU-Sim PTX: instruction assembly for function '_Z15BlackScholesGPUPfS_S_S_S_ffi'...   done.
GPGPU-Sim PTX: finding reconvergence points for '_Z15BlackScholesGPUPfS_S_S_S_ffi'...
GPGPU-Sim PTX: Finding dominators for '_Z15BlackScholesGPUPfS_S_S_S_ffi'...
GPGPU-Sim PTX: Finding immediate dominators for '_Z15BlackScholesGPUPfS_S_S_S_ffi'...
GPGPU-Sim PTX: Finding postdominators for '_Z15BlackScholesGPUPfS_S_S_S_ffi'...
GPGPU-Sim PTX: Finding immediate postdominators for '_Z15BlackScholesGPUPfS_S_S_S_ffi'...
GPGPU-Sim PTX: pre-decoding instructions for '_Z15BlackScholesGPUPfS_S_S_S_ffi'...
GPGPU-Sim PTX: reconvergence points for _Z15BlackScholesGPUPfS_S_S_S_ffi...
GPGPU-Sim PTX:  1 (potential) branch divergence @  PC=0x040 (_1.ptx:76) @%p1 bra $Lt_0_2818;
GPGPU-Sim PTX:    immediate post dominator      @  PC=0x3f8 (_1.ptx:200) exit;
GPGPU-Sim PTX:  2 (potential) branch divergence @  PC=0x3f0 (_1.ptx:197) @%p4 bra $Lt_0_3330;
GPGPU-Sim PTX:    immediate post dominator      @  PC=0x3f8 (_1.ptx:200) exit;
GPGPU-Sim PTX: ... end of reconvergence points for _Z15BlackScholesGPUPfS_S_S_S_ffi
GPGPU-Sim PTX: ... done pre-decoding instructions for '_Z15BlackScholesGPUPfS_S_S_S_ffi'.
GPGPU-Sim PTX: finished parsing EMBEDDED .ptx file _1.ptx
Adding _cuobjdump_1.ptx with cubin handle 1
GPGPU-Sim PTX: extracting embedded .ptx to temporary file "_ptx_sJotaS"
Running: cat _ptx_sJotaS | sed 's/.version 1.5/.version 1.4/' | sed 's/, texmode_independent//' | sed 's/\(\.extern \.const\[1\] .b8 \w\+\)\[\]/\1\[1\]/' | sed 's/const\[.\]/const\[0\]/g' > _ptx2_asejP0
GPGPU-Sim PTX: generating ptxinfo using "$CUDA_INSTALL_PATH/bin/ptxas --gpu-name=sm_20 -v _ptx2_asejP0 --output-file  /dev/null 2> _ptx_sJotaSinfo"
GPGPU-Sim PTX: Kernel '_Z15BlackScholesGPUPfS_S_S_S_ffi' : regs=31, lmem=0, smem=0, cmem=128
GPGPU-Sim PTX: removing ptxinfo using "rm -f _ptx_sJotaS _ptx2_asejP0 _ptx_sJotaSinfo"
GPGPU-Sim PTX: loading globals with explicit initializers... 
GPGPU-Sim PTX: finished loading globals (0 bytes total).
GPGPU-Sim PTX: loading constants with explicit initializers...  done.
Initializing data...
...allocating CPU memory for options.
...allocating GPU memory for options.
...generating input data in CPU mem.
...copying input data to GPU mem.
Data init done.
Executing Black-Scholes GPU kernel (1 iterations)...
GPGPU-Sim: synchronize waiting for inactive GPU simulation
GPGPU-Sim API: Stream Manager State
GPGPU-Sim: detected inactive GPU simulation thread

GPGPU-Sim PTX: cudaLaunch for 0x0x405752 (mode=performance simulation) on stream 0
GPGPU-Sim PTX: pushing kernel '_Z15BlackScholesGPUPfS_S_S_S_ffi' to stream 0, gridDim= (480,1,1) blockDim = (128,1,1) 
kernel '_Z15BlackScholesGPUPfS_S_S_S_ffi' transfer to GPU hardware scheduler
GPGPU-Sim uArch: Shader 1 bind to kernel 1 '_Z15BlackScholesGPUPfS_S_S_S_ffi'
GPGPU-Sim uArch: CTA/core = 8, limited by: regs cta_limit
GPGPU-Sim uArch: core:  1, cta: 0 initialized @(1,0)
GPGPU-Sim uArch: Shader 2 bind to kernel 1 '_Z15BlackScholesGPUPfS_S_S_S_ffi'
GPGPU-Sim uArch: core:  2, cta: 0 initialized @(1,0)
GPGPU-Sim uArch: Shader 3 bind to kernel 1 '_Z15BlackScholesGPUPfS_S_S_S_ffi'
GPGPU-Sim uArch: core:  3, cta: 0 initialized @(1,0)
GPGPU-Sim uArch: Shader 4 bind to kernel 1 '_Z15BlackScholesGPUPfS_S_S_S_ffi'
GPGPU-Sim uArch: core:  4, cta: 0 initialized @(1,0)
GPGPU-Sim uArch: Shader 5 bind to kernel 1 '_Z15BlackScholesGPUPfS_S_S_S_ffi'
GPGPU-Sim uArch: core:  5, cta: 0 initialized @(1,0)
GPGPU-Sim uArch: Shader 6 bind to kernel 1 '_Z15BlackScholesGPUPfS_S_S_S_ffi'
GPGPU-Sim uArch: core:  6, cta: 0 initialized @(1,0)
GPGPU-Sim uArch: Shader 7 bind to kernel 1 '_Z15BlackScholesGPUPfS_S_S_S_ffi'
GPGPU-Sim uArch: core:  7, cta: 0 initialized @(1,0)
GPGPU-Sim uArch: Shader 8 bind to kernel 1 '_Z15BlackScholesGPUPfS_S_S_S_ffi'
GPGPU-Sim uArch: core:  8, cta: 0 initialized @(1,0)
GPGPU-Sim uArch: Shader 9 bind to kernel 1 '_Z15BlackScholesGPUPfS_S_S_S_ffi'
GPGPU-Sim uArch: core:  9, cta: 0 initialized @(1,0)
GPGPU-Sim uArch: Shader 10 bind to kernel 1 '_Z15BlackScholesGPUPfS_S_S_S_ffi'
GPGPU-Sim uArch: core: 10, cta: 0 initialized @(1,0)
GPGPU-Sim uArch: Shader 11 bind to kernel 1 '_Z15BlackScholesGPUPfS_S_S_S_ffi'
GPGPU-Sim uArch: core: 11, cta: 0 initialized @(1,0)
GPGPU-Sim uArch: Shader 12 bind to kernel 1 '_Z15BlackScholesGPUPfS_S_S_S_ffi'
GPGPU-Sim uArch: core: 12, cta: 0 initialized @(1,0)
GPGPU-Sim uArch: Shader 13 bind to kernel 1 '_Z15BlackScholesGPUPfS_S_S_S_ffi'
GPGPU-Sim uArch: core: 13, cta: 0 initialized @(1,0)
GPGPU-Sim uArch: Shader 14 bind to kernel 1 '_Z15BlackScholesGPUPfS_S_S_S_ffi'
GPGPU-Sim uArch: core: 14, cta: 0 initialized @(1,0)
GPGPU-Sim uArch: Shader 0 bind to kernel 1 '_Z15BlackScholesGPUPfS_S_S_S_ffi'
GPGPU-Sim uArch: core:  0, cta: 0 initialized @(1,0)
GPGPU-Sim uArch: core:  1, cta: 1 initialized @(2,0)
GPGPU-Sim uArch: core:  2, cta: 1 initialized @(2,0)
GPGPU-Sim uArch: core:  3, cta: 1 initialized @(2,0)
GPGPU-Sim uArch: core:  4, cta: 1 initialized @(2,0)
GPGPU-Sim uArch: core:  5, cta: 1 initialized @(2,0)
GPGPU-Sim uArch: core:  6, cta: 1 initialized @(2,0)
GPGPU-Sim uArch: core:  7, cta: 1 initialized @(2,0)
GPGPU-Sim uArch: core:  8, cta: 1 initialized @(2,0)
GPGPU-Sim uArch: core:  9, cta: 1 initialized @(2,0)
GPGPU-Sim uArch: core: 10, cta: 1 initialized @(2,0)
GPGPU-Sim uArch: core: 11, cta: 1 initialized @(2,0)
GPGPU-Sim uArch: core: 12, cta: 1 initialized @(2,0)
GPGPU-Sim uArch: core: 13, cta: 1 initialized @(2,0)
GPGPU-Sim uArch: core: 14, cta: 1 initialized @(2,0)
GPGPU-Sim uArch: core:  0, cta: 1 initialized @(2,0)
GPGPU-Sim uArch: core:  1, cta: 2 initialized @(3,0)
GPGPU-Sim uArch: core:  2, cta: 2 initialized @(3,0)
GPGPU-Sim uArch: core:  3, cta: 2 initialized @(3,0)
GPGPU-Sim uArch: core:  4, cta: 2 initialized @(3,0)
GPGPU-Sim uArch: core:  5, cta: 2 initialized @(3,0)
GPGPU-Sim uArch: core:  6, cta: 2 initialized @(3,0)
GPGPU-Sim uArch: core:  7, cta: 2 initialized @(3,0)
GPGPU-Sim uArch: core:  8, cta: 2 initialized @(3,0)
GPGPU-Sim uArch: core:  9, cta: 2 initialized @(3,0)
GPGPU-Sim uArch: core: 10, cta: 2 initialized @(3,0)
GPGPU-Sim uArch: core: 11, cta: 2 initialized @(3,0)
GPGPU-Sim uArch: core: 12, cta: 2 initialized @(3,0)
GPGPU-Sim uArch: core: 13, cta: 2 initialized @(3,0)
GPGPU-Sim uArch: core: 14, cta: 2 initialized @(3,0)
GPGPU-Sim uArch: core:  0, cta: 2 initialized @(3,0)
GPGPU-Sim uArch: core:  1, cta: 3 initialized @(4,0)
GPGPU-Sim uArch: core:  2, cta: 3 initialized @(4,0)
GPGPU-Sim uArch: core:  3, cta: 3 initialized @(4,0)
GPGPU-Sim uArch: core:  4, cta: 3 initialized @(4,0)
GPGPU-Sim uArch: core:  5, cta: 3 initialized @(4,0)
GPGPU-Sim uArch: core:  6, cta: 3 initialized @(4,0)
GPGPU-Sim uArch: core:  7, cta: 3 initialized @(4,0)
GPGPU-Sim uArch: core:  8, cta: 3 initialized @(4,0)
GPGPU-Sim uArch: core:  9, cta: 3 initialized @(4,0)
GPGPU-Sim uArch: core: 10, cta: 3 initialized @(4,0)
GPGPU-Sim uArch: core: 11, cta: 3 initialized @(4,0)
GPGPU-Sim uArch: core: 12, cta: 3 initialized @(4,0)
GPGPU-Sim uArch: core: 13, cta: 3 initialized @(4,0)
GPGPU-Sim uArch: core: 14, cta: 3 initialized @(4,0)
GPGPU-Sim uArch: core:  0, cta: 3 initialized @(4,0)
GPGPU-Sim uArch: core:  1, cta: 4 initialized @(5,0)
GPGPU-Sim uArch: core:  2, cta: 4 initialized @(5,0)
GPGPU-Sim uArch: core:  3, cta: 4 initialized @(5,0)
GPGPU-Sim uArch: core:  4, cta: 4 initialized @(5,0)
GPGPU-Sim uArch: core:  5, cta: 4 initialized @(5,0)
GPGPU-Sim uArch: core:  6, cta: 4 initialized @(5,0)
GPGPU-Sim uArch: core:  7, cta: 4 initialized @(5,0)
GPGPU-Sim uArch: core:  8, cta: 4 initialized @(5,0)
GPGPU-Sim uArch: core:  9, cta: 4 initialized @(5,0)
GPGPU-Sim uArch: core: 10, cta: 4 initialized @(5,0)
GPGPU-Sim uArch: core: 11, cta: 4 initialized @(5,0)
GPGPU-Sim uArch: core: 12, cta: 4 initialized @(5,0)
GPGPU-Sim uArch: core: 13, cta: 4 initialized @(5,0)
GPGPU-Sim uArch: core: 14, cta: 4 initialized @(5,0)
GPGPU-Sim uArch: core:  0, cta: 4 initialized @(5,0)
GPGPU-Sim uArch: core:  1, cta: 5 initialized @(6,0)
GPGPU-Sim uArch: core:  2, cta: 5 initialized @(6,0)
GPGPU-Sim uArch: core:  3, cta: 5 initialized @(6,0)
GPGPU-Sim uArch: core:  4, cta: 5 initialized @(6,0)
GPGPU-Sim uArch: core:  5, cta: 5 initialized @(6,0)
GPGPU-Sim uArch: core:  6, cta: 5 initialized @(6,0)
GPGPU-Sim uArch: core:  7, cta: 5 initialized @(6,0)
GPGPU-Sim uArch: core:  8, cta: 5 initialized @(6,0)
GPGPU-Sim uArch: core:  9, cta: 5 initialized @(6,0)
GPGPU-Sim uArch: core: 10, cta: 5 initialized @(6,0)
GPGPU-Sim uArch: core: 11, cta: 5 initialized @(6,0)
GPGPU-Sim uArch: core: 12, cta: 5 initialized @(6,0)
GPGPU-Sim uArch: core: 13, cta: 5 initialized @(6,0)
GPGPU-Sim uArch: core: 14, cta: 5 initialized @(6,0)
GPGPU-Sim uArch: core:  0, cta: 5 initialized @(6,0)
GPGPU-Sim uArch: core:  1, cta: 6 initialized @(7,0)
GPGPU-Sim uArch: core:  2, cta: 6 initialized @(7,0)
GPGPU-Sim uArch: core:  3, cta: 6 initialized @(7,0)
GPGPU-Sim uArch: core:  4, cta: 6 initialized @(7,0)
GPGPU-Sim uArch: core:  5, cta: 6 initialized @(7,0)
GPGPU-Sim uArch: core:  6, cta: 6 initialized @(7,0)
GPGPU-Sim uArch: core:  7, cta: 6 initialized @(7,0)
GPGPU-Sim uArch: core:  8, cta: 6 initialized @(7,0)
GPGPU-Sim uArch: core:  9, cta: 6 initialized @(7,0)
GPGPU-Sim uArch: core: 10, cta: 6 initialized @(7,0)
GPGPU-Sim uArch: core: 11, cta: 6 initialized @(7,0)
GPGPU-Sim uArch: core: 12, cta: 6 initialized @(7,0)
GPGPU-Sim uArch: core: 13, cta: 6 initialized @(7,0)
GPGPU-Sim uArch: core: 14, cta: 6 initialized @(7,0)
GPGPU-Sim uArch: core:  0, cta: 6 initialized @(7,0)
GPGPU-Sim uArch: core:  1, cta: 7 initialized @(8,0)
GPGPU-Sim uArch: core:  2, cta: 7 initialized @(8,0)
GPGPU-Sim uArch: core:  3, cta: 7 initialized @(8,0)
GPGPU-Sim uArch: core:  4, cta: 7 initialized @(8,0)
GPGPU-Sim uArch: core:  5, cta: 7 initialized @(8,0)
GPGPU-Sim uArch: core:  6, cta: 7 initialized @(8,0)
GPGPU-Sim uArch: core:  7, cta: 7 initialized @(8,0)
GPGPU-Sim uArch: core:  8, cta: 7 initialized @(8,0)
GPGPU-Sim uArch: core:  9, cta: 7 initialized @(8,0)
GPGPU-Sim uArch: core: 10, cta: 7 initialized @(8,0)
GPGPU-Sim uArch: core: 11, cta: 7 initialized @(8,0)
GPGPU-Sim uArch: core: 12, cta: 7 initialized @(8,0)
GPGPU-Sim uArch: core: 13, cta: 7 initialized @(8,0)
GPGPU-Sim uArch: core: 14, cta: 7 initialized @(8,0)
GPGPU-Sim uArch: core:  0, cta: 7 initialized @(8,0)
GPGPU-Sim uArch: cycles simulated: 500  inst.: 11520 (ipc=23.0) sim_rate=5760 (inst/sec) elapsed = 0:0:00:02 / Tue Mar 22 07:00:10 2016
GPGPU-Sim PTX: 100000 instructions simulated : ctaid=(6,0,0) tid=(63,0,0)
GPGPU-Sim PTX: 200000 instructions simulated : ctaid=(5,0,0) tid=(95,0,0)
GPGPU-Sim uArch: cycles simulated: 3500  inst.: 241920 (ipc=69.1) sim_rate=80640 (inst/sec) elapsed = 0:0:00:03 / Tue Mar 22 07:00:11 2016
GPGPU-Sim PTX: 300000 instructions simulated : ctaid=(11,0,0) tid=(95,0,0)
GPGPU-Sim PTX: 400000 instructions simulated : ctaid=(11,0,0) tid=(127,0,0)
GPGPU-Sim PTX: 500000 instructions simulated : ctaid=(0,0,0) tid=(31,0,0)
GPGPU-Sim PTX: 600000 instructions simulated : ctaid=(7,0,0) tid=(127,0,0)
GPGPU-Sim PTX: 700000 instructions simulated : ctaid=(5,0,0) tid=(31,0,0)
GPGPU-Sim uArch: cycles simulated: 6000  inst.: 760736 (ipc=126.8) sim_rate=190184 (inst/sec) elapsed = 0:0:00:04 / Tue Mar 22 07:00:12 2016
GPGPU-Sim PTX: 800000 instructions simulated : ctaid=(3,0,0) tid=(95,0,0)
GPGPU-Sim PTX: 900000 instructions simulated : ctaid=(1,0,0) tid=(127,0,0)
GPGPU-Sim PTX: 1000000 instructions simulated : ctaid=(9,0,0) tid=(63,0,0)
GPGPU-Sim PTX: 1100000 instructions simulated : ctaid=(5,0,0) tid=(63,0,0)
GPGPU-Sim PTX: 1200000 instructions simulated : ctaid=(4,0,0) tid=(31,0,0)
GPGPU-Sim uArch: cycles simulated: 8000  inst.: 1233312 (ipc=154.2) sim_rate=246662 (inst/sec) elapsed = 0:0:00:05 / Tue Mar 22 07:00:13 2016
GPGPU-Sim PTX: 1300000 instructions simulated : ctaid=(8,0,0) tid=(127,0,0)
GPGPU-Sim PTX: 1400000 instructions simulated : ctaid=(8,0,0) tid=(95,0,0)
GPGPU-Sim PTX: 1500000 instructions simulated : ctaid=(7,0,0) tid=(127,0,0)
GPGPU-Sim PTX: 1600000 instructions simulated : ctaid=(6,0,0) tid=(31,0,0)
GPGPU-Sim PTX: 1700000 instructions simulated : ctaid=(7,0,0) tid=(127,0,0)
GPGPU-Sim uArch: cycles simulated: 10000  inst.: 1703936 (ipc=170.4) sim_rate=283989 (inst/sec) elapsed = 0:0:00:06 / Tue Mar 22 07:00:14 2016
GPGPU-Sim PTX: 1800000 instructions simulated : ctaid=(14,0,0) tid=(95,0,0)
GPGPU-Sim PTX: 1900000 instructions simulated : ctaid=(0,0,0) tid=(127,0,0)
GPGPU-Sim PTX: 2000000 instructions simulated : ctaid=(14,0,0) tid=(63,0,0)
GPGPU-Sim PTX: 2100000 instructions simulated : ctaid=(12,0,0) tid=(31,0,0)
GPGPU-Sim uArch: cycles simulated: 12000  inst.: 2189184 (ipc=182.4) sim_rate=312740 (inst/sec) elapsed = 0:0:00:07 / Tue Mar 22 07:00:15 2016
GPGPU-Sim PTX: 2200000 instructions simulated : ctaid=(13,0,0) tid=(95,0,0)
GPGPU-Sim PTX: 2300000 instructions simulated : ctaid=(5,0,0) tid=(127,0,0)
GPGPU-Sim PTX: 2400000 instructions simulated : ctaid=(10,0,0) tid=(63,0,0)
GPGPU-Sim PTX: 2500000 instructions simulated : ctaid=(11,0,0) tid=(127,0,0)
GPGPU-Sim PTX: 2600000 instructions simulated : ctaid=(13,0,0) tid=(31,0,0)
GPGPU-Sim PTX: 2700000 instructions simulated : ctaid=(7,0,0) tid=(127,0,0)
GPGPU-Sim PTX: 2800000 instructions simulated : ctaid=(3,0,0) tid=(127,0,0)
GPGPU-Sim uArch: cycles simulated: 14500  inst.: 2795808 (ipc=192.8) sim_rate=349476 (inst/sec) elapsed = 0:0:00:08 / Tue Mar 22 07:00:16 2016
GPGPU-Sim PTX: 2900000 instructions simulated : ctaid=(14,0,0) tid=(31,0,0)
GPGPU-Sim PTX: 3000000 instructions simulated : ctaid=(8,0,0) tid=(127,0,0)
GPGPU-Sim PTX: 3100000 instructions simulated : ctaid=(4,0,0) tid=(31,0,0)
GPGPU-Sim PTX: 3200000 instructions simulated : ctaid=(2,0,0) tid=(127,0,0)
GPGPU-Sim uArch: cycles simulated: 16500  inst.: 3275232 (ipc=198.5) sim_rate=363914 (inst/sec) elapsed = 0:0:00:09 / Tue Mar 22 07:00:17 2016
GPGPU-Sim PTX: 3300000 instructions simulated : ctaid=(10,0,0) tid=(127,0,0)
GPGPU-Sim PTX: 3400000 instructions simulated : ctaid=(8,0,0) tid=(95,0,0)
GPGPU-Sim PTX: 3500000 instructions simulated : ctaid=(7,0,0) tid=(31,0,0)
GPGPU-Sim PTX: 3600000 instructions simulated : ctaid=(5,0,0) tid=(127,0,0)
GPGPU-Sim PTX: 3700000 instructions simulated : ctaid=(12,0,0) tid=(31,0,0)
GPGPU-Sim uArch: cycles simulated: 18500  inst.: 3760960 (ipc=203.3) sim_rate=376096 (inst/sec) elapsed = 0:0:00:10 / Tue Mar 22 07:00:18 2016
GPGPU-Sim PTX: 3800000 instructions simulated : ctaid=(0,0,0) tid=(95,0,0)
GPGPU-Sim PTX: 3900000 instructions simulated : ctaid=(13,0,0) tid=(31,0,0)
GPGPU-Sim PTX: 4000000 instructions simulated : ctaid=(3,0,0) tid=(95,0,0)
GPGPU-Sim PTX: 4100000 instructions simulated : ctaid=(14,0,0) tid=(95,0,0)
GPGPU-Sim PTX: 4200000 instructions simulated : ctaid=(6,0,0) tid=(31,0,0)
GPGPU-Sim PTX: 4300000 instructions simulated : ctaid=(7,0,0) tid=(31,0,0)
GPGPU-Sim uArch: cycles simulated: 21000  inst.: 4367552 (ipc=208.0) sim_rate=397050 (inst/sec) elapsed = 0:0:00:11 / Tue Mar 22 07:00:19 2016
GPGPU-Sim PTX: 4400000 instructions simulated : ctaid=(13,0,0) tid=(95,0,0)
GPGPU-Sim PTX: 4500000 instructions simulated : ctaid=(4,0,0) tid=(63,0,0)
GPGPU-Sim PTX: 4600000 instructions simulated : ctaid=(9,0,0) tid=(95,0,0)
GPGPU-Sim PTX: 4700000 instructions simulated : ctaid=(7,0,0) tid=(63,0,0)
GPGPU-Sim PTX: 4800000 instructions simulated : ctaid=(13,0,0) tid=(63,0,0)
GPGPU-Sim uArch: cycles simulated: 23000  inst.: 4859296 (ipc=211.3) sim_rate=404941 (inst/sec) elapsed = 0:0:00:12 / Tue Mar 22 07:00:20 2016
GPGPU-Sim PTX: 4900000 instructions simulated : ctaid=(14,0,0) tid=(95,0,0)
GPGPU-Sim PTX: 5000000 instructions simulated : ctaid=(8,0,0) tid=(127,0,0)
GPGPU-Sim PTX: 5100000 instructions simulated : ctaid=(8,0,0) tid=(95,0,0)
GPGPU-Sim PTX: 5200000 instructions simulated : ctaid=(3,0,0) tid=(95,0,0)
GPGPU-Sim PTX: 5300000 instructions simulated : ctaid=(0,0,0) tid=(63,0,0)
GPGPU-Sim uArch: cycles simulated: 25000  inst.: 5343776 (ipc=213.8) sim_rate=411059 (inst/sec) elapsed = 0:0:00:13 / Tue Mar 22 07:00:21 2016
GPGPU-Sim PTX: 5400000 instructions simulated : ctaid=(3,0,0) tid=(31,0,0)
GPGPU-Sim PTX: 5500000 instructions simulated : ctaid=(5,0,0) tid=(95,0,0)
GPGPU-Sim PTX: 5600000 instructions simulated : ctaid=(4,0,0) tid=(63,0,0)
GPGPU-Sim PTX: 5700000 instructions simulated : ctaid=(12,0,0) tid=(63,0,0)
GPGPU-Sim PTX: 5800000 instructions simulated : ctaid=(0,0,0) tid=(127,0,0)
GPGPU-Sim uArch: cycles simulated: 27000  inst.: 5833408 (ipc=216.1) sim_rate=416672 (inst/sec) elapsed = 0:0:00:14 / Tue Mar 22 07:00:22 2016
GPGPU-Sim PTX: 5900000 instructions simulated : ctaid=(0,0,0) tid=(31,0,0)
GPGPU-Sim PTX: 6000000 instructions simulated : ctaid=(18,0,0) tid=(63,0,0)
GPGPU-Sim PTX: 6100000 instructions simulated : ctaid=(9,0,0) tid=(31,0,0)
GPGPU-Sim uArch: Shader 4 finished CTA #0 (28326,0), 7 CTAs running
GPGPU-Sim uArch: core:  4, cta: 0 initialized @(28327,0)
GPGPU-Sim PTX: 6200000 instructions simulated : ctaid=(25,0,0) tid=(63,0,0)
GPGPU-Sim uArch: Shader 6 finished CTA #0 (28623,0), 7 CTAs running
GPGPU-Sim uArch: core:  6, cta: 0 initialized @(28624,0)
GPGPU-Sim uArch: Shader 0 finished CTA #0 (28726,0), 7 CTAs running
GPGPU-Sim uArch: core:  0, cta: 0 initialized @(28727,0)
GPGPU-Sim uArch: Shader 9 finished CTA #0 (28747,0), 7 CTAs running
GPGPU-Sim uArch: core:  9, cta: 0 initialized @(28748,0)
GPGPU-Sim PTX: 6300000 instructions simulated : ctaid=(22,0,0) tid=(95,0,0)
GPGPU-Sim uArch: Shader 11 finished CTA #0 (28772,0), 7 CTAs running
GPGPU-Sim uArch: core: 11, cta: 0 initialized @(28773,0)
GPGPU-Sim uArch: Shader 3 finished CTA #0 (28785,0), 7 CTAs running
GPGPU-Sim uArch: core:  3, cta: 0 initialized @(28786,0)
GPGPU-Sim uArch: Shader 5 finished CTA #0 (28800,0), 7 CTAs running
GPGPU-Sim uArch: core:  5, cta: 0 initialized @(28801,0)
GPGPU-Sim uArch: Shader 2 finished CTA #0 (28915,0), 7 CTAs running
GPGPU-Sim uArch: core:  2, cta: 0 initialized @(28916,0)
GPGPU-Sim uArch: cycles simulated: 29000  inst.: 6350336 (ipc=219.0) sim_rate=423355 (inst/sec) elapsed = 0:0:00:15 / Tue Mar 22 07:00:23 2016
GPGPU-Sim uArch: Shader 8 finished CTA #0 (29004,0), 7 CTAs running
GPGPU-Sim uArch: core:  8, cta: 0 initialized @(29005,0)
GPGPU-Sim uArch: Shader 10 finished CTA #0 (29064,0), 7 CTAs running
GPGPU-Sim uArch: core: 10, cta: 0 initialized @(29065,0)
GPGPU-Sim uArch: Shader 14 finished CTA #0 (29071,0), 7 CTAs running
GPGPU-Sim uArch: core: 14, cta: 0 initialized @(29072,0)
GPGPU-Sim uArch: Shader 7 finished CTA #0 (29092,0), 7 CTAs running
GPGPU-Sim uArch: core:  7, cta: 0 initialized @(29093,0)
GPGPU-Sim uArch: Shader 12 finished CTA #0 (29101,0), 7 CTAs running
GPGPU-Sim uArch: core: 12, cta: 0 initialized @(29102,0)
GPGPU-Sim uArch: Shader 1 finished CTA #0 (29112,0), 7 CTAs running
GPGPU-Sim uArch: core:  1, cta: 0 initialized @(29113,0)
GPGPU-Sim PTX: 6400000 instructions simulated : ctaid=(19,0,0) tid=(63,0,0)
GPGPU-Sim uArch: Shader 13 finished CTA #0 (29184,0), 7 CTAs running
GPGPU-Sim uArch: core: 13, cta: 0 initialized @(29185,0)
GPGPU-Sim PTX: 6500000 instructions simulated : ctaid=(27,0,0) tid=(95,0,0)
GPGPU-Sim PTX: 6600000 instructions simulated : ctaid=(29,0,0) tid=(127,0,0)
GPGPU-Sim PTX: 6700000 instructions simulated : ctaid=(28,0,0) tid=(31,0,0)
GPGPU-Sim PTX: 6800000 instructions simulated : ctaid=(15,0,0) tid=(63,0,0)
GPGPU-Sim uArch: cycles simulated: 31000  inst.: 6833600 (ipc=220.4) sim_rate=427100 (inst/sec) elapsed = 0:0:00:16 / Tue Mar 22 07:00:24 2016
GPGPU-Sim PTX: 6900000 instructions simulated : ctaid=(26,0,0) tid=(31,0,0)
GPGPU-Sim PTX: 7000000 instructions simulated : ctaid=(21,0,0) tid=(31,0,0)
GPGPU-Sim PTX: 7100000 instructions simulated : ctaid=(16,0,0) tid=(63,0,0)
GPGPU-Sim PTX: 7200000 instructions simulated : ctaid=(23,0,0) tid=(63,0,0)
GPGPU-Sim PTX: 7300000 instructions simulated : ctaid=(24,0,0) tid=(95,0,0)
GPGPU-Sim uArch: cycles simulated: 33000  inst.: 7327456 (ipc=222.0) sim_rate=431026 (inst/sec) elapsed = 0:0:00:17 / Tue Mar 22 07:00:25 2016
GPGPU-Sim PTX: 7400000 instructions simulated : ctaid=(24,0,0) tid=(127,0,0)
GPGPU-Sim PTX: 7500000 instructions simulated : ctaid=(20,0,0) tid=(127,0,0)
GPGPU-Sim PTX: 7600000 instructions simulated : ctaid=(29,0,0) tid=(63,0,0)
GPGPU-Sim PTX: 7700000 instructions simulated : ctaid=(26,0,0) tid=(127,0,0)
GPGPU-Sim PTX: 7800000 instructions simulated : ctaid=(17,0,0) tid=(63,0,0)
GPGPU-Sim PTX: 7900000 instructions simulated : ctaid=(28,0,0) tid=(63,0,0)
GPGPU-Sim uArch: cycles simulated: 35500  inst.: 7939328 (ipc=223.6) sim_rate=441073 (inst/sec) elapsed = 0:0:00:18 / Tue Mar 22 07:00:26 2016
GPGPU-Sim PTX: 8000000 instructions simulated : ctaid=(28,0,0) tid=(95,0,0)
GPGPU-Sim PTX: 8100000 instructions simulated : ctaid=(16,0,0) tid=(95,0,0)
GPGPU-Sim PTX: 8200000 instructions simulated : ctaid=(19,0,0) tid=(31,0,0)
GPGPU-Sim PTX: 8300000 instructions simulated : ctaid=(20,0,0) tid=(31,0,0)
GPGPU-Sim PTX: 8400000 instructions simulated : ctaid=(22,0,0) tid=(63,0,0)
GPGPU-Sim uArch: cycles simulated: 37500  inst.: 8428992 (ipc=224.8) sim_rate=443631 (inst/sec) elapsed = 0:0:00:19 / Tue Mar 22 07:00:27 2016
GPGPU-Sim PTX: 8500000 instructions simulated : ctaid=(25,0,0) tid=(31,0,0)
GPGPU-Sim PTX: 8600000 instructions simulated : ctaid=(16,0,0) tid=(31,0,0)
GPGPU-Sim PTX: 8700000 instructions simulated : ctaid=(23,0,0) tid=(63,0,0)
GPGPU-Sim PTX: 8800000 instructions simulated : ctaid=(28,0,0) tid=(95,0,0)
GPGPU-Sim PTX: 8900000 instructions simulated : ctaid=(21,0,0) tid=(31,0,0)
GPGPU-Sim uArch: cycles simulated: 39500  inst.: 8916128 (ipc=225.7) sim_rate=445806 (inst/sec) elapsed = 0:0:00:20 / Tue Mar 22 07:00:28 2016
GPGPU-Sim PTX: 9000000 instructions simulated : ctaid=(19,0,0) tid=(95,0,0)
GPGPU-Sim PTX: 9100000 instructions simulated : ctaid=(23,0,0) tid=(95,0,0)
GPGPU-Sim PTX: 9200000 instructions simulated : ctaid=(26,0,0) tid=(127,0,0)
GPGPU-Sim PTX: 9300000 instructions simulated : ctaid=(16,0,0) tid=(31,0,0)
GPGPU-Sim PTX: 9400000 instructions simulated : ctaid=(24,0,0) tid=(127,0,0)
GPGPU-Sim uArch: cycles simulated: 41500  inst.: 9396128 (ipc=226.4) sim_rate=447434 (inst/sec) elapsed = 0:0:00:21 / Tue Mar 22 07:00:29 2016
GPGPU-Sim PTX: 9500000 instructions simulated : ctaid=(26,0,0) tid=(95,0,0)
GPGPU-Sim PTX: 9600000 instructions simulated : ctaid=(19,0,0) tid=(127,0,0)
GPGPU-Sim PTX: 9700000 instructions simulated : ctaid=(16,0,0) tid=(63,0,0)
GPGPU-Sim uArch: cycles simulated: 43000  inst.: 9760768 (ipc=227.0) sim_rate=443671 (inst/sec) elapsed = 0:0:00:22 / Tue Mar 22 07:00:30 2016
GPGPU-Sim PTX: 9800000 instructions simulated : ctaid=(21,0,0) tid=(31,0,0)
GPGPU-Sim PTX: 9900000 instructions simulated : ctaid=(23,0,0) tid=(63,0,0)
GPGPU-Sim PTX: 10000000 instructions simulated : ctaid=(29,0,0) tid=(95,0,0)
GPGPU-Sim PTX: 10100000 instructions simulated : ctaid=(22,0,0) tid=(31,0,0)
GPGPU-Sim PTX: 10200000 instructions simulated : ctaid=(23,0,0) tid=(63,0,0)
GPGPU-Sim uArch: cycles simulated: 45000  inst.: 10252192 (ipc=227.8) sim_rate=445747 (inst/sec) elapsed = 0:0:00:23 / Tue Mar 22 07:00:31 2016
GPGPU-Sim PTX: 10300000 instructions simulated : ctaid=(16,0,0) tid=(127,0,0)
GPGPU-Sim PTX: 10400000 instructions simulated : ctaid=(19,0,0) tid=(63,0,0)
GPGPU-Sim PTX: 10500000 instructions simulated : ctaid=(26,0,0) tid=(127,0,0)
GPGPU-Sim PTX: 10600000 instructions simulated : ctaid=(23,0,0) tid=(63,0,0)
GPGPU-Sim PTX: 10700000 instructions simulated : ctaid=(28,0,0) tid=(127,0,0)
GPGPU-Sim uArch: cycles simulated: 47000  inst.: 10739712 (ipc=228.5) sim_rate=447488 (inst/sec) elapsed = 0:0:00:24 / Tue Mar 22 07:00:32 2016
GPGPU-Sim PTX: 10800000 instructions simulated : ctaid=(18,0,0) tid=(63,0,0)
GPGPU-Sim PTX: 10900000 instructions simulated : ctaid=(25,0,0) tid=(95,0,0)
GPGPU-Sim PTX: 11000000 instructions simulated : ctaid=(23,0,0) tid=(95,0,0)
GPGPU-Sim PTX: 11100000 instructions simulated : ctaid=(21,0,0) tid=(95,0,0)
GPGPU-Sim uArch: cycles simulated: 48500  inst.: 11106816 (ipc=229.0) sim_rate=444272 (inst/sec) elapsed = 0:0:00:25 / Tue Mar 22 07:00:33 2016
GPGPU-Sim PTX: 11200000 instructions simulated : ctaid=(25,0,0) tid=(63,0,0)
GPGPU-Sim PTX: 11300000 instructions simulated : ctaid=(20,0,0) tid=(63,0,0)
GPGPU-Sim PTX: 11400000 instructions simulated : ctaid=(22,0,0) tid=(31,0,0)
GPGPU-Sim PTX: 11500000 instructions simulated : ctaid=(18,0,0) tid=(127,0,0)
GPGPU-Sim PTX: 11600000 instructions simulated : ctaid=(28,0,0) tid=(95,0,0)
GPGPU-Sim uArch: cycles simulated: 50500  inst.: 11595328 (ipc=229.6) sim_rate=445974 (inst/sec) elapsed = 0:0:00:26 / Tue Mar 22 07:00:34 2016
GPGPU-Sim PTX: 11700000 instructions simulated : ctaid=(26,0,0) tid=(95,0,0)
GPGPU-Sim PTX: 11800000 instructions simulated : ctaid=(28,0,0) tid=(63,0,0)
GPGPU-Sim PTX: 11900000 instructions simulated : ctaid=(22,0,0) tid=(63,0,0)
GPGPU-Sim uArch: cycles simulated: 52000  inst.: 11966304 (ipc=230.1) sim_rate=443196 (inst/sec) elapsed = 0:0:00:27 / Tue Mar 22 07:00:35 2016
GPGPU-Sim PTX: 12000000 instructions simulated : ctaid=(16,0,0) tid=(127,0,0)
GPGPU-Sim PTX: 12100000 instructions simulated : ctaid=(25,0,0) tid=(31,0,0)
GPGPU-Sim PTX: 12200000 instructions simulated : ctaid=(15,0,0) tid=(63,0,0)
GPGPU-Sim PTX: 12300000 instructions simulated : ctaid=(24,0,0) tid=(95,0,0)
GPGPU-Sim uArch: Shader 4 finished CTA #1 (53498,0), 7 CTAs running
GPGPU-Sim uArch: core:  4, cta: 1 initialized @(53499,0)
GPGPU-Sim uArch: cycles simulated: 53500  inst.: 12353024 (ipc=230.9) sim_rate=441179 (inst/sec) elapsed = 0:0:00:28 / Tue Mar 22 07:00:36 2016
GPGPU-Sim PTX: 12400000 instructions simulated : ctaid=(19,0,0) tid=(127,0,0)
GPGPU-Sim uArch: Shader 0 finished CTA #1 (53656,0), 7 CTAs running
GPGPU-Sim uArch: core:  0, cta: 1 initialized @(53657,0)
GPGPU-Sim uArch: Shader 6 finished CTA #1 (53832,0), 7 CTAs running
GPGPU-Sim uArch: core:  6, cta: 1 initialized @(53833,0)
GPGPU-Sim PTX: 12500000 instructions simulated : ctaid=(35,0,0) tid=(63,0,0)
GPGPU-Sim uArch: Shader 3 finished CTA #1 (54033,0), 7 CTAs running
GPGPU-Sim uArch: core:  3, cta: 1 initialized @(54034,0)
GPGPU-Sim uArch: Shader 9 finished CTA #1 (54045,0), 7 CTAs running
GPGPU-Sim uArch: core:  9, cta: 1 initialized @(54046,0)
GPGPU-Sim uArch: Shader 14 finished CTA #1 (54149,0), 7 CTAs running
GPGPU-Sim uArch: core: 14, cta: 1 initialized @(54150,0)
GPGPU-Sim uArch: Shader 5 finished CTA #1 (54175,0), 7 CTAs running
GPGPU-Sim uArch: core:  5, cta: 1 initialized @(54176,0)
GPGPU-Sim uArch: Shader 11 finished CTA #1 (54206,0), 7 CTAs running
GPGPU-Sim uArch: core: 11, cta: 1 initialized @(54207,0)
GPGPU-Sim uArch: Shader 2 finished CTA #1 (54211,0), 7 CTAs running
GPGPU-Sim uArch: core:  2, cta: 1 initialized @(54212,0)
GPGPU-Sim uArch: Shader 8 finished CTA #1 (54296,0), 7 CTAs running
GPGPU-Sim uArch: core:  8, cta: 1 initialized @(54297,0)
GPGPU-Sim uArch: Shader 10 finished CTA #1 (54306,0), 7 CTAs running
GPGPU-Sim uArch: core: 10, cta: 1 initialized @(54307,0)
GPGPU-Sim PTX: 12600000 instructions simulated : ctaid=(37,0,0) tid=(95,0,0)
GPGPU-Sim uArch: Shader 1 finished CTA #1 (54428,0), 7 CTAs running
GPGPU-Sim uArch: core:  1, cta: 1 initialized @(54429,0)
GPGPU-Sim uArch: Shader 7 finished CTA #1 (54472,0), 7 CTAs running
GPGPU-Sim uArch: core:  7, cta: 1 initialized @(54473,0)
GPGPU-Sim uArch: Shader 12 finished CTA #1 (54606,0), 7 CTAs running
GPGPU-Sim uArch: core: 12, cta: 1 initialized @(54607,0)
GPGPU-Sim uArch: Shader 13 finished CTA #1 (54774,0), 7 CTAs running
GPGPU-Sim uArch: core: 13, cta: 1 initialized @(54775,0)
GPGPU-Sim PTX: 12700000 instructions simulated : ctaid=(41,0,0) tid=(31,0,0)
GPGPU-Sim uArch: cycles simulated: 55000  inst.: 12737440 (ipc=231.6) sim_rate=439222 (inst/sec) elapsed = 0:0:00:29 / Tue Mar 22 07:00:37 2016
GPGPU-Sim PTX: 12800000 instructions simulated : ctaid=(31,0,0) tid=(127,0,0)
GPGPU-Sim PTX: 12900000 instructions simulated : ctaid=(30,0,0) tid=(31,0,0)
GPGPU-Sim PTX: 13000000 instructions simulated : ctaid=(41,0,0) tid=(63,0,0)
GPGPU-Sim PTX: 13100000 instructions simulated : ctaid=(33,0,0) tid=(127,0,0)
GPGPU-Sim PTX: 13200000 instructions simulated : ctaid=(43,0,0) tid=(127,0,0)
GPGPU-Sim uArch: cycles simulated: 57000  inst.: 13225216 (ipc=232.0) sim_rate=440840 (inst/sec) elapsed = 0:0:00:30 / Tue Mar 22 07:00:38 2016
GPGPU-Sim PTX: 13300000 instructions simulated : ctaid=(37,0,0) tid=(63,0,0)
GPGPU-Sim PTX: 13400000 instructions simulated : ctaid=(35,0,0) tid=(63,0,0)
GPGPU-Sim PTX: 13500000 instructions simulated : ctaid=(30,0,0) tid=(127,0,0)
GPGPU-Sim PTX: 13600000 instructions simulated : ctaid=(44,0,0) tid=(63,0,0)
GPGPU-Sim uArch: cycles simulated: 58500  inst.: 13591232 (ipc=232.3) sim_rate=438426 (inst/sec) elapsed = 0:0:00:31 / Tue Mar 22 07:00:39 2016
GPGPU-Sim PTX: 13700000 instructions simulated : ctaid=(37,0,0) tid=(95,0,0)
GPGPU-Sim PTX: 13800000 instructions simulated : ctaid=(44,0,0) tid=(127,0,0)
GPGPU-Sim PTX: 13900000 instructions simulated : ctaid=(30,0,0) tid=(31,0,0)
GPGPU-Sim PTX: 14000000 instructions simulated : ctaid=(31,0,0) tid=(63,0,0)
GPGPU-Sim PTX: 14100000 instructions simulated : ctaid=(33,0,0) tid=(31,0,0)
GPGPU-Sim uArch: cycles simulated: 60500  inst.: 14086464 (ipc=232.8) sim_rate=440202 (inst/sec) elapsed = 0:0:00:32 / Tue Mar 22 07:00:40 2016
GPGPU-Sim PTX: 14200000 instructions simulated : ctaid=(34,0,0) tid=(63,0,0)
GPGPU-Sim PTX: 14300000 instructions simulated : ctaid=(38,0,0) tid=(63,0,0)
GPGPU-Sim PTX: 14400000 instructions simulated : ctaid=(36,0,0) tid=(95,0,0)
GPGPU-Sim uArch: cycles simulated: 62000  inst.: 14454272 (ipc=233.1) sim_rate=438008 (inst/sec) elapsed = 0:0:00:33 / Tue Mar 22 07:00:41 2016
GPGPU-Sim PTX: 14500000 instructions simulated : ctaid=(44,0,0) tid=(63,0,0)
GPGPU-Sim PTX: 14600000 instructions simulated : ctaid=(44,0,0) tid=(127,0,0)
GPGPU-Sim PTX: 14700000 instructions simulated : ctaid=(42,0,0) tid=(127,0,0)
GPGPU-Sim PTX: 14800000 instructions simulated : ctaid=(36,0,0) tid=(127,0,0)
GPGPU-Sim PTX: 14900000 instructions simulated : ctaid=(41,0,0) tid=(31,0,0)
GPGPU-Sim uArch: cycles simulated: 64000  inst.: 14933120 (ipc=233.3) sim_rate=439209 (inst/sec) elapsed = 0:0:00:34 / Tue Mar 22 07:00:42 2016
GPGPU-Sim PTX: 15000000 instructions simulated : ctaid=(41,0,0) tid=(127,0,0)
GPGPU-Sim PTX: 15100000 instructions simulated : ctaid=(39,0,0) tid=(95,0,0)
GPGPU-Sim PTX: 15200000 instructions simulated : ctaid=(39,0,0) tid=(31,0,0)
GPGPU-Sim PTX: 15300000 instructions simulated : ctaid=(36,0,0) tid=(95,0,0)
GPGPU-Sim uArch: cycles simulated: 65500  inst.: 15299872 (ipc=233.6) sim_rate=437139 (inst/sec) elapsed = 0:0:00:35 / Tue Mar 22 07:00:43 2016
GPGPU-Sim PTX: 15400000 instructions simulated : ctaid=(44,0,0) tid=(31,0,0)
GPGPU-Sim PTX: 15500000 instructions simulated : ctaid=(33,0,0) tid=(95,0,0)
GPGPU-Sim PTX: 15600000 instructions simulated : ctaid=(44,0,0) tid=(63,0,0)
GPGPU-Sim PTX: 15700000 instructions simulated : ctaid=(42,0,0) tid=(127,0,0)
GPGPU-Sim PTX: 15800000 instructions simulated : ctaid=(40,0,0) tid=(127,0,0)
GPGPU-Sim uArch: cycles simulated: 67500  inst.: 15787232 (ipc=233.9) sim_rate=438534 (inst/sec) elapsed = 0:0:00:36 / Tue Mar 22 07:00:44 2016
GPGPU-Sim PTX: 15900000 instructions simulated : ctaid=(44,0,0) tid=(127,0,0)
GPGPU-Sim PTX: 16000000 instructions simulated : ctaid=(38,0,0) tid=(31,0,0)
GPGPU-Sim PTX: 16100000 instructions simulated : ctaid=(30,0,0) tid=(95,0,0)
GPGPU-Sim uArch: cycles simulated: 69000  inst.: 16153408 (ipc=234.1) sim_rate=436578 (inst/sec) elapsed = 0:0:00:37 / Tue Mar 22 07:00:45 2016
GPGPU-Sim PTX: 16200000 instructions simulated : ctaid=(39,0,0) tid=(127,0,0)
GPGPU-Sim PTX: 16300000 instructions simulated : ctaid=(32,0,0) tid=(31,0,0)
GPGPU-Sim PTX: 16400000 instructions simulated : ctaid=(35,0,0) tid=(31,0,0)
GPGPU-Sim PTX: 16500000 instructions simulated : ctaid=(33,0,0) tid=(31,0,0)
GPGPU-Sim PTX: 16600000 instructions simulated : ctaid=(30,0,0) tid=(95,0,0)
GPGPU-Sim uArch: cycles simulated: 71000  inst.: 16637568 (ipc=234.3) sim_rate=437830 (inst/sec) elapsed = 0:0:00:38 / Tue Mar 22 07:00:46 2016
GPGPU-Sim PTX: 16700000 instructions simulated : ctaid=(31,0,0) tid=(95,0,0)
GPGPU-Sim PTX: 16800000 instructions simulated : ctaid=(43,0,0) tid=(31,0,0)
GPGPU-Sim PTX: 16900000 instructions simulated : ctaid=(36,0,0) tid=(31,0,0)
GPGPU-Sim PTX: 17000000 instructions simulated : ctaid=(33,0,0) tid=(95,0,0)
GPGPU-Sim uArch: cycles simulated: 72500  inst.: 17003808 (ipc=234.5) sim_rate=435995 (inst/sec) elapsed = 0:0:00:39 / Tue Mar 22 07:00:47 2016
GPGPU-Sim PTX: 17100000 instructions simulated : ctaid=(40,0,0) tid=(127,0,0)
GPGPU-Sim PTX: 17200000 instructions simulated : ctaid=(30,0,0) tid=(63,0,0)
GPGPU-Sim PTX: 17300000 instructions simulated : ctaid=(38,0,0) tid=(63,0,0)
GPGPU-Sim uArch: cycles simulated: 74000  inst.: 17370784 (ipc=234.7) sim_rate=434269 (inst/sec) elapsed = 0:0:00:40 / Tue Mar 22 07:00:48 2016
GPGPU-Sim PTX: 17400000 instructions simulated : ctaid=(39,0,0) tid=(31,0,0)
GPGPU-Sim PTX: 17500000 instructions simulated : ctaid=(31,0,0) tid=(63,0,0)
GPGPU-Sim PTX: 17600000 instructions simulated : ctaid=(32,0,0) tid=(31,0,0)
GPGPU-Sim PTX: 17700000 instructions simulated : ctaid=(42,0,0) tid=(95,0,0)
GPGPU-Sim PTX: 17800000 instructions simulated : ctaid=(36,0,0) tid=(31,0,0)
GPGPU-Sim uArch: cycles simulated: 76000  inst.: 17860736 (ipc=235.0) sim_rate=435627 (inst/sec) elapsed = 0:0:00:41 / Tue Mar 22 07:00:49 2016
GPGPU-Sim PTX: 17900000 instructions simulated : ctaid=(34,0,0) tid=(127,0,0)
GPGPU-Sim PTX: 18000000 instructions simulated : ctaid=(43,0,0) tid=(95,0,0)
GPGPU-Sim PTX: 18100000 instructions simulated : ctaid=(34,0,0) tid=(63,0,0)
GPGPU-Sim PTX: 18200000 instructions simulated : ctaid=(43,0,0) tid=(127,0,0)
GPGPU-Sim uArch: cycles simulated: 77500  inst.: 18225760 (ipc=235.2) sim_rate=433946 (inst/sec) elapsed = 0:0:00:42 / Tue Mar 22 07:00:50 2016
GPGPU-Sim PTX: 18300000 instructions simulated : ctaid=(35,0,0) tid=(127,0,0)
GPGPU-Sim PTX: 18400000 instructions simulated : ctaid=(40,0,0) tid=(95,0,0)
GPGPU-Sim PTX: 18500000 instructions simulated : ctaid=(39,0,0) tid=(127,0,0)
GPGPU-Sim PTX: 18600000 instructions simulated : ctaid=(47,0,0) tid=(95,0,0)
GPGPU-Sim uArch: Shader 4 finished CTA #2 (78992,0), 7 CTAs running
GPGPU-Sim uArch: core:  4, cta: 2 initialized @(78993,0)
GPGPU-Sim uArch: cycles simulated: 79000  inst.: 18610208 (ipc=235.6) sim_rate=432795 (inst/sec) elapsed = 0:0:00:43 / Tue Mar 22 07:00:51 2016
GPGPU-Sim uArch: Shader 6 finished CTA #2 (79129,0), 7 CTAs running
GPGPU-Sim uArch: core:  6, cta: 2 initialized @(79130,0)
GPGPU-Sim uArch: Shader 9 finished CTA #2 (79144,0), 7 CTAs running
GPGPU-Sim uArch: core:  9, cta: 2 initialized @(79145,0)
GPGPU-Sim uArch: Shader 0 finished CTA #2 (79160,0), 7 CTAs running
GPGPU-Sim uArch: core:  0, cta: 2 initialized @(79161,0)
GPGPU-Sim PTX: 18700000 instructions simulated : ctaid=(59,0,0) tid=(31,0,0)
GPGPU-Sim uArch: Shader 8 finished CTA #2 (79320,0), 7 CTAs running
GPGPU-Sim uArch: core:  8, cta: 2 initialized @(79321,0)
GPGPU-Sim uArch: Shader 2 finished CTA #2 (79342,0), 7 CTAs running
GPGPU-Sim uArch: core:  2, cta: 2 initialized @(79343,0)
GPGPU-Sim uArch: Shader 3 finished CTA #2 (79383,0), 7 CTAs running
GPGPU-Sim uArch: core:  3, cta: 2 initialized @(79384,0)
GPGPU-Sim uArch: Shader 5 finished CTA #2 (79473,0), 7 CTAs running
GPGPU-Sim uArch: core:  5, cta: 2 initialized @(79474,0)
GPGPU-Sim uArch: Shader 11 finished CTA #2 (79495,0), 7 CTAs running
GPGPU-Sim uArch: core: 11, cta: 2 initialized @(79496,0)
GPGPU-Sim uArch: Shader 10 finished CTA #2 (79530,0), 7 CTAs running
GPGPU-Sim uArch: core: 10, cta: 2 initialized @(79531,0)
GPGPU-Sim uArch: Shader 14 finished CTA #2 (79577,0), 7 CTAs running
GPGPU-Sim uArch: core: 14, cta: 2 initialized @(79578,0)
GPGPU-Sim PTX: 18800000 instructions simulated : ctaid=(57,0,0) tid=(31,0,0)
GPGPU-Sim uArch: Shader 7 finished CTA #2 (79738,0), 7 CTAs running
GPGPU-Sim uArch: core:  7, cta: 2 initialized @(79739,0)
GPGPU-Sim uArch: Shader 1 finished CTA #2 (79912,0), 7 CTAs running
GPGPU-Sim uArch: core:  1, cta: 2 initialized @(79913,0)
GPGPU-Sim PTX: 18900000 instructions simulated : ctaid=(55,0,0) tid=(95,0,0)
GPGPU-Sim uArch: Shader 12 finished CTA #2 (80069,0), 7 CTAs running
GPGPU-Sim uArch: core: 12, cta: 2 initialized @(80070,0)
GPGPU-Sim uArch: Shader 13 finished CTA #2 (80234,0), 7 CTAs running
GPGPU-Sim uArch: core: 13, cta: 2 initialized @(80235,0)
GPGPU-Sim PTX: 19000000 instructions simulated : ctaid=(53,0,0) tid=(63,0,0)
GPGPU-Sim uArch: cycles simulated: 80500  inst.: 18987296 (ipc=235.9) sim_rate=431529 (inst/sec) elapsed = 0:0:00:44 / Tue Mar 22 07:00:52 2016
GPGPU-Sim PTX: 19100000 instructions simulated : ctaid=(45,0,0) tid=(95,0,0)
GPGPU-Sim PTX: 19200000 instructions simulated : ctaid=(57,0,0) tid=(127,0,0)
GPGPU-Sim PTX: 19300000 instructions simulated : ctaid=(53,0,0) tid=(95,0,0)
GPGPU-Sim PTX: 19400000 instructions simulated : ctaid=(46,0,0) tid=(63,0,0)
GPGPU-Sim uArch: cycles simulated: 82500  inst.: 19477152 (ipc=236.1) sim_rate=432825 (inst/sec) elapsed = 0:0:00:45 / Tue Mar 22 07:00:53 2016
GPGPU-Sim PTX: 19500000 instructions simulated : ctaid=(47,0,0) tid=(63,0,0)
GPGPU-Sim PTX: 19600000 instructions simulated : ctaid=(58,0,0) tid=(127,0,0)
GPGPU-Sim PTX: 19700000 instructions simulated : ctaid=(51,0,0) tid=(127,0,0)
GPGPU-Sim PTX: 19800000 instructions simulated : ctaid=(58,0,0) tid=(31,0,0)
GPGPU-Sim uArch: cycles simulated: 84000  inst.: 19841376 (ipc=236.2) sim_rate=431334 (inst/sec) elapsed = 0:0:00:46 / Tue Mar 22 07:00:54 2016
GPGPU-Sim PTX: 19900000 instructions simulated : ctaid=(50,0,0) tid=(127,0,0)
GPGPU-Sim PTX: 20000000 instructions simulated : ctaid=(49,0,0) tid=(127,0,0)
GPGPU-Sim PTX: 20100000 instructions simulated : ctaid=(59,0,0) tid=(63,0,0)
GPGPU-Sim PTX: 20200000 instructions simulated : ctaid=(59,0,0) tid=(127,0,0)
GPGPU-Sim uArch: cycles simulated: 85500  inst.: 20207712 (ipc=236.3) sim_rate=429951 (inst/sec) elapsed = 0:0:00:47 / Tue Mar 22 07:00:55 2016
GPGPU-Sim PTX: 20300000 instructions simulated : ctaid=(53,0,0) tid=(95,0,0)
GPGPU-Sim PTX: 20400000 instructions simulated : ctaid=(49,0,0) tid=(127,0,0)
GPGPU-Sim PTX: 20500000 instructions simulated : ctaid=(58,0,0) tid=(127,0,0)
GPGPU-Sim PTX: 20600000 instructions simulated : ctaid=(47,0,0) tid=(63,0,0)
GPGPU-Sim PTX: 20700000 instructions simulated : ctaid=(53,0,0) tid=(31,0,0)
GPGPU-Sim uArch: cycles simulated: 87500  inst.: 20697152 (ipc=236.5) sim_rate=431190 (inst/sec) elapsed = 0:0:00:48 / Tue Mar 22 07:00:56 2016
GPGPU-Sim PTX: 20800000 instructions simulated : ctaid=(47,0,0) tid=(127,0,0)
GPGPU-Sim PTX: 20900000 instructions simulated : ctaid=(45,0,0) tid=(127,0,0)
GPGPU-Sim PTX: 21000000 instructions simulated : ctaid=(53,0,0) tid=(127,0,0)
GPGPU-Sim uArch: cycles simulated: 89000  inst.: 21062560 (ipc=236.7) sim_rate=429848 (inst/sec) elapsed = 0:0:00:49 / Tue Mar 22 07:00:57 2016
GPGPU-Sim PTX: 21100000 instructions simulated : ctaid=(50,0,0) tid=(63,0,0)
GPGPU-Sim PTX: 21200000 instructions simulated : ctaid=(47,0,0) tid=(63,0,0)
GPGPU-Sim PTX: 21300000 instructions simulated : ctaid=(52,0,0) tid=(31,0,0)
GPGPU-Sim PTX: 21400000 instructions simulated : ctaid=(47,0,0) tid=(31,0,0)
GPGPU-Sim uArch: cycles simulated: 90500  inst.: 21427936 (ipc=236.8) sim_rate=428558 (inst/sec) elapsed = 0:0:00:50 / Tue Mar 22 07:00:58 2016
GPGPU-Sim PTX: 21500000 instructions simulated : ctaid=(57,0,0) tid=(127,0,0)
GPGPU-Sim PTX: 21600000 instructions simulated : ctaid=(53,0,0) tid=(127,0,0)
GPGPU-Sim PTX: 21700000 instructions simulated : ctaid=(56,0,0) tid=(95,0,0)
GPGPU-Sim PTX: 21800000 instructions simulated : ctaid=(59,0,0) tid=(63,0,0)
GPGPU-Sim PTX: 21900000 instructions simulated : ctaid=(47,0,0) tid=(127,0,0)
GPGPU-Sim uArch: cycles simulated: 92500  inst.: 21915776 (ipc=236.9) sim_rate=429721 (inst/sec) elapsed = 0:0:00:51 / Tue Mar 22 07:00:59 2016
GPGPU-Sim PTX: 22000000 instructions simulated : ctaid=(55,0,0) tid=(127,0,0)
GPGPU-Sim PTX: 22100000 instructions simulated : ctaid=(52,0,0) tid=(63,0,0)
GPGPU-Sim PTX: 22200000 instructions simulated : ctaid=(58,0,0) tid=(127,0,0)
GPGPU-Sim PTX: 22300000 instructions simulated : ctaid=(59,0,0) tid=(95,0,0)
GPGPU-Sim uArch: cycles simulated: 94000  inst.: 22285024 (ipc=237.1) sim_rate=428558 (inst/sec) elapsed = 0:0:00:52 / Tue Mar 22 07:01:00 2016
GPGPU-Sim PTX: 22400000 instructions simulated : ctaid=(57,0,0) tid=(127,0,0)
GPGPU-Sim PTX: 22500000 instructions simulated : ctaid=(59,0,0) tid=(127,0,0)
GPGPU-Sim PTX: 22600000 instructions simulated : ctaid=(49,0,0) tid=(63,0,0)
GPGPU-Sim uArch: cycles simulated: 95500  inst.: 22651872 (ipc=237.2) sim_rate=427393 (inst/sec) elapsed = 0:0:00:53 / Tue Mar 22 07:01:01 2016
GPGPU-Sim PTX: 22700000 instructions simulated : ctaid=(49,0,0) tid=(31,0,0)
GPGPU-Sim PTX: 22800000 instructions simulated : ctaid=(57,0,0) tid=(95,0,0)
GPGPU-Sim PTX: 22900000 instructions simulated : ctaid=(53,0,0) tid=(31,0,0)
GPGPU-Sim PTX: 23000000 instructions simulated : ctaid=(54,0,0) tid=(127,0,0)
GPGPU-Sim PTX: 23100000 instructions simulated : ctaid=(56,0,0) tid=(63,0,0)
GPGPU-Sim uArch: cycles simulated: 97500  inst.: 23137184 (ipc=237.3) sim_rate=428466 (inst/sec) elapsed = 0:0:00:54 / Tue Mar 22 07:01:02 2016
GPGPU-Sim PTX: 23200000 instructions simulated : ctaid=(57,0,0) tid=(95,0,0)
GPGPU-Sim PTX: 23300000 instructions simulated : ctaid=(57,0,0) tid=(127,0,0)
GPGPU-Sim PTX: 23400000 instructions simulated : ctaid=(56,0,0) tid=(31,0,0)
GPGPU-Sim PTX: 23500000 instructions simulated : ctaid=(58,0,0) tid=(63,0,0)
GPGPU-Sim uArch: cycles simulated: 99000  inst.: 23506624 (ipc=237.4) sim_rate=427393 (inst/sec) elapsed = 0:0:00:55 / Tue Mar 22 07:01:03 2016
GPGPU-Sim PTX: 23600000 instructions simulated : ctaid=(45,0,0) tid=(63,0,0)
GPGPU-Sim PTX: 23700000 instructions simulated : ctaid=(46,0,0) tid=(31,0,0)
GPGPU-Sim PTX: 23800000 instructions simulated : ctaid=(49,0,0) tid=(31,0,0)
GPGPU-Sim PTX: 23900000 instructions simulated : ctaid=(52,0,0) tid=(63,0,0)
GPGPU-Sim PTX: 24000000 instructions simulated : ctaid=(49,0,0) tid=(31,0,0)
GPGPU-Sim uArch: cycles simulated: 101000  inst.: 23994400 (ipc=237.6) sim_rate=428471 (inst/sec) elapsed = 0:0:00:56 / Tue Mar 22 07:01:04 2016
GPGPU-Sim PTX: 24100000 instructions simulated : ctaid=(52,0,0) tid=(31,0,0)
GPGPU-Sim PTX: 24200000 instructions simulated : ctaid=(49,0,0) tid=(127,0,0)
GPGPU-Sim PTX: 24300000 instructions simulated : ctaid=(57,0,0) tid=(63,0,0)
GPGPU-Sim uArch: cycles simulated: 102500  inst.: 24360800 (ipc=237.7) sim_rate=427382 (inst/sec) elapsed = 0:0:00:57 / Tue Mar 22 07:01:05 2016
GPGPU-Sim PTX: 24400000 instructions simulated : ctaid=(54,0,0) tid=(31,0,0)
GPGPU-Sim PTX: 24500000 instructions simulated : ctaid=(51,0,0) tid=(127,0,0)
GPGPU-Sim PTX: 24600000 instructions simulated : ctaid=(60,0,0) tid=(63,0,0)
GPGPU-Sim PTX: 24700000 instructions simulated : ctaid=(74,0,0) tid=(31,0,0)
GPGPU-Sim uArch: cycles simulated: 104000  inst.: 24742912 (ipc=237.9) sim_rate=426601 (inst/sec) elapsed = 0:0:00:58 / Tue Mar 22 07:01:06 2016
GPGPU-Sim uArch: Shader 4 finished CTA #3 (104130,0), 7 CTAs running
GPGPU-Sim uArch: core:  4, cta: 3 initialized @(104131,0)
GPGPU-Sim PTX: 24800000 instructions simulated : ctaid=(60,0,0) tid=(63,0,0)
GPGPU-Sim uArch: Shader 6 finished CTA #3 (104400,0), 7 CTAs running
GPGPU-Sim uArch: core:  6, cta: 3 initialized @(104401,0)
GPGPU-Sim uArch: Shader 9 finished CTA #3 (104466,0), 7 CTAs running
GPGPU-Sim uArch: core:  9, cta: 3 initialized @(104467,0)
GPGPU-Sim uArch: Shader 0 finished CTA #3 (104502,0), 7 CTAs running
GPGPU-Sim uArch: core:  0, cta: 3 initialized @(104503,0)
GPGPU-Sim PTX: 24900000 instructions simulated : ctaid=(57,0,0) tid=(63,0,0)
GPGPU-Sim uArch: Shader 3 finished CTA #3 (104558,0), 7 CTAs running
GPGPU-Sim uArch: core:  3, cta: 3 initialized @(104559,0)
GPGPU-Sim uArch: Shader 2 finished CTA #3 (104667,0), 7 CTAs running
GPGPU-Sim uArch: core:  2, cta: 3 initialized @(104668,0)
GPGPU-Sim uArch: Shader 8 finished CTA #3 (104669,0), 7 CTAs running
GPGPU-Sim uArch: core:  8, cta: 3 initialized @(104670,0)
GPGPU-Sim uArch: Shader 14 finished CTA #3 (104747,0), 7 CTAs running
GPGPU-Sim uArch: core: 14, cta: 3 initialized @(104748,0)
GPGPU-Sim uArch: Shader 5 finished CTA #3 (104751,0), 7 CTAs running
GPGPU-Sim uArch: core:  5, cta: 3 initialized @(104752,0)
GPGPU-Sim uArch: Shader 11 finished CTA #3 (104756,0), 7 CTAs running
GPGPU-Sim uArch: core: 11, cta: 3 initialized @(104757,0)
GPGPU-Sim uArch: Shader 10 finished CTA #3 (104913,0), 7 CTAs running
GPGPU-Sim uArch: core: 10, cta: 3 initialized @(104914,0)
GPGPU-Sim PTX: 25000000 instructions simulated : ctaid=(67,0,0) tid=(95,0,0)
GPGPU-Sim uArch: Shader 7 finished CTA #3 (104940,0), 7 CTAs running
GPGPU-Sim uArch: core:  7, cta: 3 initialized @(104941,0)
GPGPU-Sim uArch: Shader 1 finished CTA #3 (105253,0), 7 CTAs running
GPGPU-Sim uArch: core:  1, cta: 3 initialized @(105254,0)
GPGPU-Sim PTX: 25100000 instructions simulated : ctaid=(70,0,0) tid=(31,0,0)
GPGPU-Sim uArch: Shader 12 finished CTA #3 (105316,0), 7 CTAs running
GPGPU-Sim uArch: core: 12, cta: 3 initialized @(105317,0)
GPGPU-Sim uArch: cycles simulated: 105500  inst.: 25124960 (ipc=238.2) sim_rate=425846 (inst/sec) elapsed = 0:0:00:59 / Tue Mar 22 07:01:07 2016
GPGPU-Sim uArch: Shader 13 finished CTA #3 (105622,0), 7 CTAs running
GPGPU-Sim uArch: core: 13, cta: 3 initialized @(105623,0)
GPGPU-Sim PTX: 25200000 instructions simulated : ctaid=(63,0,0) tid=(31,0,0)
GPGPU-Sim PTX: 25300000 instructions simulated : ctaid=(73,0,0) tid=(127,0,0)
GPGPU-Sim PTX: 25400000 instructions simulated : ctaid=(68,0,0) tid=(95,0,0)
GPGPU-Sim PTX: 25500000 instructions simulated : ctaid=(67,0,0) tid=(63,0,0)
GPGPU-Sim PTX: 25600000 instructions simulated : ctaid=(65,0,0) tid=(63,0,0)
GPGPU-Sim uArch: cycles simulated: 107500  inst.: 25608640 (ipc=238.2) sim_rate=426810 (inst/sec) elapsed = 0:0:01:00 / Tue Mar 22 07:01:08 2016
GPGPU-Sim PTX: 25700000 instructions simulated : ctaid=(70,0,0) tid=(63,0,0)
GPGPU-Sim PTX: 25800000 instructions simulated : ctaid=(66,0,0) tid=(95,0,0)
GPGPU-Sim PTX: 25900000 instructions simulated : ctaid=(66,0,0) tid=(31,0,0)
GPGPU-Sim uArch: cycles simulated: 109000  inst.: 25974240 (ipc=238.3) sim_rate=425807 (inst/sec) elapsed = 0:0:01:01 / Tue Mar 22 07:01:09 2016
GPGPU-Sim PTX: 26000000 instructions simulated : ctaid=(70,0,0) tid=(95,0,0)
GPGPU-Sim PTX: 26100000 instructions simulated : ctaid=(69,0,0) tid=(63,0,0)
GPGPU-Sim PTX: 26200000 instructions simulated : ctaid=(72,0,0) tid=(95,0,0)
GPGPU-Sim PTX: 26300000 instructions simulated : ctaid=(66,0,0) tid=(63,0,0)
GPGPU-Sim uArch: cycles simulated: 110500  inst.: 26341184 (ipc=238.4) sim_rate=424857 (inst/sec) elapsed = 0:0:01:02 / Tue Mar 22 07:01:10 2016
GPGPU-Sim PTX: 26400000 instructions simulated : ctaid=(71,0,0) tid=(63,0,0)
GPGPU-Sim PTX: 26500000 instructions simulated : ctaid=(74,0,0) tid=(63,0,0)
GPGPU-Sim PTX: 26600000 instructions simulated : ctaid=(69,0,0) tid=(127,0,0)
GPGPU-Sim PTX: 26700000 instructions simulated : ctaid=(61,0,0) tid=(95,0,0)
GPGPU-Sim PTX: 26800000 instructions simulated : ctaid=(64,0,0) tid=(31,0,0)
GPGPU-Sim uArch: cycles simulated: 112500  inst.: 26831200 (ipc=238.5) sim_rate=425892 (inst/sec) elapsed = 0:0:01:03 / Tue Mar 22 07:01:11 2016
GPGPU-Sim PTX: 26900000 instructions simulated : ctaid=(66,0,0) tid=(95,0,0)
GPGPU-Sim PTX: 27000000 instructions simulated : ctaid=(60,0,0) tid=(63,0,0)
GPGPU-Sim PTX: 27100000 instructions simulated : ctaid=(66,0,0) tid=(63,0,0)
GPGPU-Sim PTX: 27200000 instructions simulated : ctaid=(71,0,0) tid=(63,0,0)
GPGPU-Sim uArch: cycles simulated: 114000  inst.: 27196864 (ipc=238.6) sim_rate=424951 (inst/sec) elapsed = 0:0:01:04 / Tue Mar 22 07:01:12 2016
GPGPU-Sim PTX: 27300000 instructions simulated : ctaid=(62,0,0) tid=(31,0,0)
GPGPU-Sim PTX: 27400000 instructions simulated : ctaid=(66,0,0) tid=(63,0,0)
GPGPU-Sim PTX: 27500000 instructions simulated : ctaid=(70,0,0) tid=(127,0,0)
GPGPU-Sim PTX: 27600000 instructions simulated : ctaid=(66,0,0) tid=(31,0,0)
GPGPU-Sim PTX: 27700000 instructions simulated : ctaid=(62,0,0) tid=(31,0,0)
GPGPU-Sim uArch: cycles simulated: 116000  inst.: 27686976 (ipc=238.7) sim_rate=425953 (inst/sec) elapsed = 0:0:01:05 / Tue Mar 22 07:01:13 2016
GPGPU-Sim PTX: 27800000 instructions simulated : ctaid=(67,0,0) tid=(127,0,0)
GPGPU-Sim PTX: 27900000 instructions simulated : ctaid=(64,0,0) tid=(63,0,0)
GPGPU-Sim PTX: 28000000 instructions simulated : ctaid=(67,0,0) tid=(127,0,0)
GPGPU-Sim uArch: cycles simulated: 117500  inst.: 28052256 (ipc=238.7) sim_rate=425034 (inst/sec) elapsed = 0:0:01:06 / Tue Mar 22 07:01:14 2016
GPGPU-Sim PTX: 28100000 instructions simulated : ctaid=(67,0,0) tid=(63,0,0)
GPGPU-Sim PTX: 28200000 instructions simulated : ctaid=(71,0,0) tid=(95,0,0)
GPGPU-Sim PTX: 28300000 instructions simulated : ctaid=(70,0,0) tid=(63,0,0)
GPGPU-Sim PTX: 28400000 instructions simulated : ctaid=(68,0,0) tid=(127,0,0)
GPGPU-Sim uArch: cycles simulated: 119000  inst.: 28417088 (ipc=238.8) sim_rate=424135 (inst/sec) elapsed = 0:0:01:07 / Tue Mar 22 07:01:15 2016
GPGPU-Sim PTX: 28500000 instructions simulated : ctaid=(69,0,0) tid=(31,0,0)
GPGPU-Sim PTX: 28600000 instructions simulated : ctaid=(68,0,0) tid=(63,0,0)
GPGPU-Sim PTX: 28700000 instructions simulated : ctaid=(64,0,0) tid=(31,0,0)
GPGPU-Sim PTX: 28800000 instructions simulated : ctaid=(71,0,0) tid=(31,0,0)
GPGPU-Sim PTX: 28900000 instructions simulated : ctaid=(72,0,0) tid=(63,0,0)
GPGPU-Sim uArch: cycles simulated: 121000  inst.: 28908032 (ipc=238.9) sim_rate=425118 (inst/sec) elapsed = 0:0:01:08 / Tue Mar 22 07:01:16 2016
GPGPU-Sim PTX: 29000000 instructions simulated : ctaid=(74,0,0) tid=(63,0,0)
GPGPU-Sim PTX: 29100000 instructions simulated : ctaid=(62,0,0) tid=(127,0,0)
GPGPU-Sim PTX: 29200000 instructions simulated : ctaid=(74,0,0) tid=(31,0,0)
GPGPU-Sim uArch: cycles simulated: 122500  inst.: 29275584 (ipc=239.0) sim_rate=424283 (inst/sec) elapsed = 0:0:01:09 / Tue Mar 22 07:01:17 2016
GPGPU-Sim PTX: 29300000 instructions simulated : ctaid=(73,0,0) tid=(63,0,0)
GPGPU-Sim PTX: 29400000 instructions simulated : ctaid=(65,0,0) tid=(63,0,0)
GPGPU-Sim PTX: 29500000 instructions simulated : ctaid=(65,0,0) tid=(127,0,0)
GPGPU-Sim PTX: 29600000 instructions simulated : ctaid=(63,0,0) tid=(95,0,0)
GPGPU-Sim PTX: 29700000 instructions simulated : ctaid=(70,0,0) tid=(127,0,0)
GPGPU-Sim uArch: cycles simulated: 124500  inst.: 29759360 (ipc=239.0) sim_rate=425133 (inst/sec) elapsed = 0:0:01:10 / Tue Mar 22 07:01:18 2016
GPGPU-Sim PTX: 29800000 instructions simulated : ctaid=(72,0,0) tid=(63,0,0)
GPGPU-Sim PTX: 29900000 instructions simulated : ctaid=(73,0,0) tid=(95,0,0)
GPGPU-Sim PTX: 30000000 instructions simulated : ctaid=(71,0,0) tid=(63,0,0)
GPGPU-Sim PTX: 30100000 instructions simulated : ctaid=(64,0,0) tid=(63,0,0)
GPGPU-Sim uArch: cycles simulated: 126000  inst.: 30126368 (ipc=239.1) sim_rate=424315 (inst/sec) elapsed = 0:0:01:11 / Tue Mar 22 07:01:19 2016
GPGPU-Sim PTX: 30200000 instructions simulated : ctaid=(62,0,0) tid=(95,0,0)
GPGPU-Sim PTX: 30300000 instructions simulated : ctaid=(61,0,0) tid=(63,0,0)
GPGPU-Sim PTX: 30400000 instructions simulated : ctaid=(72,0,0) tid=(63,0,0)
GPGPU-Sim PTX: 30500000 instructions simulated : ctaid=(65,0,0) tid=(31,0,0)
GPGPU-Sim uArch: cycles simulated: 127500  inst.: 30495744 (ipc=239.2) sim_rate=423552 (inst/sec) elapsed = 0:0:01:12 / Tue Mar 22 07:01:20 2016
GPGPU-Sim PTX: 30600000 instructions simulated : ctaid=(64,0,0) tid=(95,0,0)
GPGPU-Sim PTX: 30700000 instructions simulated : ctaid=(74,0,0) tid=(63,0,0)
GPGPU-Sim PTX: 30800000 instructions simulated : ctaid=(60,0,0) tid=(95,0,0)
GPGPU-Sim PTX: 30900000 instructions simulated : ctaid=(60,0,0) tid=(127,0,0)
GPGPU-Sim uArch: Shader 4 finished CTA #4 (129376,0), 7 CTAs running
GPGPU-Sim uArch: core:  4, cta: 4 initialized @(129377,0)
GPGPU-Sim PTX: 31000000 instructions simulated : ctaid=(68,0,0) tid=(127,0,0)
GPGPU-Sim uArch: cycles simulated: 129500  inst.: 31004352 (ipc=239.4) sim_rate=424717 (inst/sec) elapsed = 0:0:01:13 / Tue Mar 22 07:01:21 2016
GPGPU-Sim uArch: Shader 6 finished CTA #4 (129702,0), 7 CTAs running
GPGPU-Sim uArch: core:  6, cta: 4 initialized @(129703,0)
GPGPU-Sim uArch: Shader 3 finished CTA #4 (129750,0), 7 CTAs running
GPGPU-Sim uArch: core:  3, cta: 4 initialized @(129751,0)
GPGPU-Sim PTX: 31100000 instructions simulated : ctaid=(66,0,0) tid=(95,0,0)
GPGPU-Sim uArch: Shader 9 finished CTA #4 (129783,0), 7 CTAs running
GPGPU-Sim uArch: core:  9, cta: 4 initialized @(129784,0)
GPGPU-Sim uArch: Shader 0 finished CTA #4 (129807,0), 7 CTAs running
GPGPU-Sim uArch: core:  0, cta: 4 initialized @(129808,0)
GPGPU-Sim uArch: Shader 2 finished CTA #4 (129904,0), 7 CTAs running
GPGPU-Sim uArch: core:  2, cta: 4 initialized @(129905,0)
GPGPU-Sim uArch: Shader 8 finished CTA #4 (129926,0), 7 CTAs running
GPGPU-Sim uArch: core:  8, cta: 4 initialized @(129927,0)
GPGPU-Sim uArch: Shader 14 finished CTA #4 (129955,0), 7 CTAs running
GPGPU-Sim uArch: core: 14, cta: 4 initialized @(129956,0)
GPGPU-Sim uArch: Shader 10 finished CTA #4 (130022,0), 7 CTAs running
GPGPU-Sim uArch: core: 10, cta: 4 initialized @(130023,0)
GPGPU-Sim uArch: Shader 5 finished CTA #4 (130044,0), 7 CTAs running
GPGPU-Sim uArch: core:  5, cta: 4 initialized @(130045,0)
GPGPU-Sim uArch: Shader 11 finished CTA #4 (130066,0), 7 CTAs running
GPGPU-Sim uArch: core: 11, cta: 4 initialized @(130067,0)
GPGPU-Sim PTX: 31200000 instructions simulated : ctaid=(88,0,0) tid=(63,0,0)
GPGPU-Sim uArch: Shader 7 finished CTA #4 (130222,0), 7 CTAs running
GPGPU-Sim uArch: core:  7, cta: 4 initialized @(130223,0)
GPGPU-Sim PTX: 31300000 instructions simulated : ctaid=(83,0,0) tid=(31,0,0)
GPGPU-Sim uArch: Shader 1 finished CTA #4 (130624,0), 7 CTAs running
GPGPU-Sim uArch: core:  1, cta: 4 initialized @(130625,0)
GPGPU-Sim uArch: Shader 12 finished CTA #4 (130776,0), 7 CTAs running
GPGPU-Sim uArch: core: 12, cta: 4 initialized @(130777,0)
GPGPU-Sim uArch: Shader 13 finished CTA #4 (130953,0), 7 CTAs running
GPGPU-Sim uArch: core: 13, cta: 4 initialized @(130954,0)
GPGPU-Sim PTX: 31400000 instructions simulated : ctaid=(86,0,0) tid=(127,0,0)
GPGPU-Sim uArch: cycles simulated: 131000  inst.: 31374560 (ipc=239.5) sim_rate=423980 (inst/sec) elapsed = 0:0:01:14 / Tue Mar 22 07:01:22 2016
GPGPU-Sim PTX: 31500000 instructions simulated : ctaid=(88,0,0) tid=(31,0,0)
GPGPU-Sim PTX: 31600000 instructions simulated : ctaid=(84,0,0) tid=(63,0,0)
GPGPU-Sim PTX: 31700000 instructions simulated : ctaid=(87,0,0) tid=(63,0,0)
GPGPU-Sim uArch: cycles simulated: 132500  inst.: 31743808 (ipc=239.6) sim_rate=423250 (inst/sec) elapsed = 0:0:01:15 / Tue Mar 22 07:01:23 2016
GPGPU-Sim PTX: 31800000 instructions simulated : ctaid=(79,0,0) tid=(127,0,0)
GPGPU-Sim PTX: 31900000 instructions simulated : ctaid=(76,0,0) tid=(31,0,0)
GPGPU-Sim PTX: 32000000 instructions simulated : ctaid=(83,0,0) tid=(31,0,0)
GPGPU-Sim PTX: 32100000 instructions simulated : ctaid=(77,0,0) tid=(95,0,0)
GPGPU-Sim PTX: 32200000 instructions simulated : ctaid=(80,0,0) tid=(31,0,0)
GPGPU-Sim uArch: cycles simulated: 134500  inst.: 32237952 (ipc=239.7) sim_rate=424183 (inst/sec) elapsed = 0:0:01:16 / Tue Mar 22 07:01:24 2016
GPGPU-Sim PTX: 32300000 instructions simulated : ctaid=(75,0,0) tid=(63,0,0)
GPGPU-Sim PTX: 32400000 instructions simulated : ctaid=(84,0,0) tid=(127,0,0)
GPGPU-Sim PTX: 32500000 instructions simulated : ctaid=(87,0,0) tid=(63,0,0)
GPGPU-Sim PTX: 32600000 instructions simulated : ctaid=(86,0,0) tid=(63,0,0)
GPGPU-Sim uArch: cycles simulated: 136000  inst.: 32604192 (ipc=239.7) sim_rate=423431 (inst/sec) elapsed = 0:0:01:17 / Tue Mar 22 07:01:25 2016
GPGPU-Sim PTX: 32700000 instructions simulated : ctaid=(76,0,0) tid=(127,0,0)
GPGPU-Sim PTX: 32800000 instructions simulated : ctaid=(79,0,0) tid=(63,0,0)
GPGPU-Sim PTX: 32900000 instructions simulated : ctaid=(88,0,0) tid=(127,0,0)
GPGPU-Sim uArch: cycles simulated: 137500  inst.: 32971808 (ipc=239.8) sim_rate=422715 (inst/sec) elapsed = 0:0:01:18 / Tue Mar 22 07:01:26 2016
GPGPU-Sim PTX: 33000000 instructions simulated : ctaid=(82,0,0) tid=(31,0,0)
GPGPU-Sim PTX: 33100000 instructions simulated : ctaid=(77,0,0) tid=(63,0,0)
GPGPU-Sim PTX: 33200000 instructions simulated : ctaid=(81,0,0) tid=(95,0,0)
GPGPU-Sim PTX: 33300000 instructions simulated : ctaid=(89,0,0) tid=(63,0,0)
GPGPU-Sim PTX: 33400000 instructions simulated : ctaid=(87,0,0) tid=(127,0,0)
GPGPU-Sim uArch: cycles simulated: 139500  inst.: 33457248 (ipc=239.8) sim_rate=423509 (inst/sec) elapsed = 0:0:01:19 / Tue Mar 22 07:01:27 2016
GPGPU-Sim PTX: 33500000 instructions simulated : ctaid=(84,0,0) tid=(95,0,0)
GPGPU-Sim PTX: 33600000 instructions simulated : ctaid=(83,0,0) tid=(95,0,0)
GPGPU-Sim PTX: 33700000 instructions simulated : ctaid=(85,0,0) tid=(63,0,0)
GPGPU-Sim PTX: 33800000 instructions simulated : ctaid=(78,0,0) tid=(63,0,0)
GPGPU-Sim uArch: cycles simulated: 141000  inst.: 33825952 (ipc=239.9) sim_rate=422824 (inst/sec) elapsed = 0:0:01:20 / Tue Mar 22 07:01:28 2016
GPGPU-Sim PTX: 33900000 instructions simulated : ctaid=(80,0,0) tid=(31,0,0)
GPGPU-Sim PTX: 34000000 instructions simulated : ctaid=(82,0,0) tid=(127,0,0)
GPGPU-Sim PTX: 34100000 instructions simulated : ctaid=(86,0,0) tid=(127,0,0)
GPGPU-Sim PTX: 34200000 instructions simulated : ctaid=(84,0,0) tid=(31,0,0)
GPGPU-Sim uArch: cycles simulated: 142500  inst.: 34192800 (ipc=239.9) sim_rate=422133 (inst/sec) elapsed = 0:0:01:21 / Tue Mar 22 07:01:29 2016
GPGPU-Sim PTX: 34300000 instructions simulated : ctaid=(79,0,0) tid=(63,0,0)
GPGPU-Sim PTX: 34400000 instructions simulated : ctaid=(88,0,0) tid=(95,0,0)
GPGPU-Sim PTX: 34500000 instructions simulated : ctaid=(85,0,0) tid=(63,0,0)
GPGPU-Sim PTX: 34600000 instructions simulated : ctaid=(75,0,0) tid=(127,0,0)
GPGPU-Sim PTX: 34700000 instructions simulated : ctaid=(77,0,0) tid=(95,0,0)
GPGPU-Sim uArch: cycles simulated: 144500  inst.: 34685056 (ipc=240.0) sim_rate=422988 (inst/sec) elapsed = 0:0:01:22 / Tue Mar 22 07:01:30 2016
GPGPU-Sim PTX: 34800000 instructions simulated : ctaid=(84,0,0) tid=(127,0,0)
GPGPU-Sim PTX: 34900000 instructions simulated : ctaid=(85,0,0) tid=(63,0,0)
GPGPU-Sim PTX: 35000000 instructions simulated : ctaid=(77,0,0) tid=(31,0,0)
GPGPU-Sim uArch: cycles simulated: 146000  inst.: 35049568 (ipc=240.1) sim_rate=422283 (inst/sec) elapsed = 0:0:01:23 / Tue Mar 22 07:01:31 2016
GPGPU-Sim PTX: 35100000 instructions simulated : ctaid=(79,0,0) tid=(63,0,0)
GPGPU-Sim PTX: 35200000 instructions simulated : ctaid=(87,0,0) tid=(95,0,0)
GPGPU-Sim PTX: 35300000 instructions simulated : ctaid=(84,0,0) tid=(63,0,0)
GPGPU-Sim PTX: 35400000 instructions simulated : ctaid=(88,0,0) tid=(31,0,0)
GPGPU-Sim PTX: 35500000 instructions simulated : ctaid=(81,0,0) tid=(63,0,0)
GPGPU-Sim uArch: cycles simulated: 148000  inst.: 35536768 (ipc=240.1) sim_rate=423056 (inst/sec) elapsed = 0:0:01:24 / Tue Mar 22 07:01:32 2016
GPGPU-Sim PTX: 35600000 instructions simulated : ctaid=(82,0,0) tid=(31,0,0)
GPGPU-Sim PTX: 35700000 instructions simulated : ctaid=(89,0,0) tid=(127,0,0)
GPGPU-Sim PTX: 35800000 instructions simulated : ctaid=(86,0,0) tid=(31,0,0)
GPGPU-Sim PTX: 35900000 instructions simulated : ctaid=(86,0,0) tid=(127,0,0)
GPGPU-Sim PTX: 36000000 instructions simulated : ctaid=(81,0,0) tid=(63,0,0)
GPGPU-Sim uArch: cycles simulated: 150000  inst.: 36027648 (ipc=240.2) sim_rate=423854 (inst/sec) elapsed = 0:0:01:25 / Tue Mar 22 07:01:33 2016
GPGPU-Sim PTX: 36100000 instructions simulated : ctaid=(80,0,0) tid=(63,0,0)
GPGPU-Sim PTX: 36200000 instructions simulated : ctaid=(76,0,0) tid=(127,0,0)
GPGPU-Sim PTX: 36300000 instructions simulated : ctaid=(81,0,0) tid=(95,0,0)
GPGPU-Sim PTX: 36400000 instructions simulated : ctaid=(77,0,0) tid=(95,0,0)
GPGPU-Sim uArch: cycles simulated: 151500  inst.: 36394656 (ipc=240.2) sim_rate=423193 (inst/sec) elapsed = 0:0:01:26 / Tue Mar 22 07:01:34 2016
GPGPU-Sim PTX: 36500000 instructions simulated : ctaid=(76,0,0) tid=(63,0,0)
GPGPU-Sim PTX: 36600000 instructions simulated : ctaid=(85,0,0) tid=(127,0,0)
GPGPU-Sim PTX: 36700000 instructions simulated : ctaid=(77,0,0) tid=(63,0,0)
GPGPU-Sim uArch: cycles simulated: 153000  inst.: 36760032 (ipc=240.3) sim_rate=422529 (inst/sec) elapsed = 0:0:01:27 / Tue Mar 22 07:01:35 2016
GPGPU-Sim PTX: 36800000 instructions simulated : ctaid=(84,0,0) tid=(31,0,0)
GPGPU-Sim PTX: 36900000 instructions simulated : ctaid=(87,0,0) tid=(95,0,0)
GPGPU-Sim PTX: 37000000 instructions simulated : ctaid=(85,0,0) tid=(95,0,0)
GPGPU-Sim PTX: 37100000 instructions simulated : ctaid=(84,0,0) tid=(31,0,0)
GPGPU-Sim uArch: cycles simulated: 154500  inst.: 37134272 (ipc=240.4) sim_rate=421980 (inst/sec) elapsed = 0:0:01:28 / Tue Mar 22 07:01:36 2016
GPGPU-Sim PTX: 37200000 instructions simulated : ctaid=(93,0,0) tid=(63,0,0)
GPGPU-Sim uArch: Shader 4 finished CTA #5 (154626,0), 7 CTAs running
GPGPU-Sim uArch: core:  4, cta: 5 initialized @(154627,0)
GPGPU-Sim uArch: Shader 3 finished CTA #5 (154913,0), 7 CTAs running
GPGPU-Sim uArch: core:  3, cta: 5 initialized @(154914,0)
GPGPU-Sim uArch: Shader 9 finished CTA #5 (154974,0), 7 CTAs running
GPGPU-Sim uArch: core:  9, cta: 5 initialized @(154975,0)
GPGPU-Sim uArch: Shader 6 finished CTA #5 (155000,0), 7 CTAs running
GPGPU-Sim uArch: core:  6, cta: 5 initialized @(155001,0)
GPGPU-Sim PTX: 37300000 instructions simulated : ctaid=(81,0,0) tid=(127,0,0)
GPGPU-Sim uArch: Shader 0 finished CTA #5 (155031,0), 7 CTAs running
GPGPU-Sim uArch: core:  0, cta: 5 initialized @(155032,0)
GPGPU-Sim uArch: Shader 2 finished CTA #5 (155115,0), 7 CTAs running
GPGPU-Sim uArch: core:  2, cta: 5 initialized @(155116,0)
GPGPU-Sim uArch: Shader 8 finished CTA #5 (155137,0), 7 CTAs running
GPGPU-Sim uArch: core:  8, cta: 5 initialized @(155138,0)
GPGPU-Sim uArch: Shader 11 finished CTA #5 (155176,0), 7 CTAs running
GPGPU-Sim uArch: core: 11, cta: 5 initialized @(155177,0)
GPGPU-Sim uArch: Shader 14 finished CTA #5 (155212,0), 7 CTAs running
GPGPU-Sim uArch: core: 14, cta: 5 initialized @(155213,0)
GPGPU-Sim uArch: Shader 5 finished CTA #5 (155238,0), 7 CTAs running
GPGPU-Sim uArch: core:  5, cta: 5 initialized @(155239,0)
GPGPU-Sim uArch: Shader 10 finished CTA #5 (155381,0), 7 CTAs running
GPGPU-Sim uArch: core: 10, cta: 5 initialized @(155382,0)
GPGPU-Sim PTX: 37400000 instructions simulated : ctaid=(94,0,0) tid=(127,0,0)
GPGPU-Sim uArch: Shader 7 finished CTA #5 (155543,0), 7 CTAs running
GPGPU-Sim uArch: core:  7, cta: 5 initialized @(155544,0)
GPGPU-Sim PTX: 37500000 instructions simulated : ctaid=(103,0,0) tid=(63,0,0)
GPGPU-Sim uArch: Shader 1 finished CTA #5 (155895,0), 7 CTAs running
GPGPU-Sim uArch: core:  1, cta: 5 initialized @(155896,0)
[...]
traffic_breakdown_memtocore[INST_ACC_R] = 16320 {136:120,}
maxmrqlatency = 280 
maxdqlatency = 0 
maxmflatency = 563 
averagemflatency = 284 
max_icnt2mem_latency = 50 
max_icnt2sh_latency = 811190 
mrq_lat_table:209835 	13192 	13301 	29697 	101660 	48485 	18698 	2633 	8 	0 	0 	0 	0 	0 	0 	0 	0 	0 	0 	0 	0 	0 	0 	0 	0 	0 	0 	0 	0 	0 	0 	0 	
dq_lat_table:0 	0 	0 	0 	0 	0 	0 	0 	0 	0 	0 	0 	0 	0 	0 	0 	0 	0 	0 	0 	0 	0 	0 	0 	0 	0 	0 	0 	0 	0 	0 	0 	
mf_lat_table:0 	0 	0 	0 	0 	0 	0 	8126 	304366 	23 	0 	0 	0 	0 	0 	0 	0 	0 	0 	0 	0 	0 	0 	0 	0 	0 	0 	0 	0 	0 	0 	0 	
icnt2mem_lat_table:0 	0 	0 	294223 	18357 	55 	0 	0 	0 	0 	0 	0 	0 	0 	0 	0 	0 	0 	0 	0 	0 	0 	0 	0 	
icnt2sh_lat_table:0 	0 	0 	108021 	74708 	4785 	1 	0 	0 	0 	0 	120 	592 	1273 	2554 	5150 	10253 	20447 	40710 	43901 	0 	0 	0 	0 	
mf_lat_pw_table:0 	0 	0 	0 	0 	0 	0 	1 	1618 	0 	0 	0 	0 	0 	0 	0 	0 	0 	0 	0 	0 	0 	0 	0 	0 	0 	0 	0 	0 	0 	0 	0 	
maximum concurrent accesses to same row:
dram[0]:        12        12        12        12        12        12        12        12        12        12        12        12        12        12        12        12 
dram[1]:        12        12        12        12        12        12        12        12        12        12        12        12        12        12        12        12 
dram[2]:        12        12        12        12        12        12        12        12        12        12        12        12        12        12        12        12 
dram[3]:        12        12        12        12        12        12        12        12        12        12        12        12        12        12        12        12 
dram[4]:        12        12        12        12        12        12        12        12        12        12        12        12        12        12        12        12 
dram[5]:        12        12        12        12        12        12        12        12        12        12        12        12        12        12        12        12 
maximum service time to same row:
dram[0]:      5411      5506      5749      5410      5270      5417      6103      5732      5260      5212      5287      5458      6502      6179      5263      5382 
dram[1]:      5354      5441      5840      5241      5340      5436      6106      5550      5468      5100      5343      5425      6593      5990      5475      5442 
dram[2]:      4643      5374      5359      5286      5250      5311      5497      5338      5368      5286      5256      5345      5982      5816      5357      5283 
dram[3]:      4865      5314      5515      5359      4908      5274      6084      5393      5432      5346      4890      5300      6457      5877      5451      5333 
dram[4]:      5126      5061      5493      5341      5288      5394      5988      5246      5242      5391      5297      5350      6416      5747      5268      5371 
dram[5]:      4916      5291      5597      5554      5187      5273      5884      5340      5585      5561      5189      5289      6354      5838      5566      5546 
average row accesses per activate:
dram[0]:  2.560384  2.494221  2.562181  2.476400  2.551802  2.502485  2.601478  2.515668  2.547884  2.499181  2.565022  2.492375  2.579481  2.533776  2.582393  2.504653 
dram[1]:  2.590520  2.639488  2.569476  2.621732  2.577929  2.630296  2.611872  2.662013  2.572232  2.617849  2.585311  2.643559  2.623853  2.674459  2.582393  2.631397 
dram[2]:  2.485479  2.451055  2.465574  2.464227  2.484649  2.469243  2.482908  2.461539  2.465517  2.464190  2.495093  2.462863  2.504653  2.488309  2.491018  2.460215 
dram[3]:  2.510238  2.561899  2.508060  2.568014  2.495595  2.561265  2.501914  2.559284  2.493733  2.557853  2.497817  2.562150  2.512905  2.566461  2.492375  2.549304 
dram[4]:  2.477596  2.417067  2.462882  2.396176  2.475150  2.414050  2.484256  2.443139  2.493733  2.410959  2.477531  2.423729  2.476191  2.417327  2.472177  2.402100 
dram[5]:  2.623842  2.639488  2.620209  2.632439  2.636416  2.661972  2.694935  2.683871  2.623853  2.645087  2.648148  2.651217  2.643559  2.658919  2.634427  2.631397 
average row locality = 437509/172306 = 2.539140
number of total memory accesses made:
dram[0]:         0         0         0         0         0         0         0         0         0         0         0         0         0         0         0         0 
dram[1]:         0         0         0         0         0         0         0         0         0         0         0         0         0         0         0         0 
dram[2]:         0         0         0         0         0         0         0         0         0         0         0         0         0         0         0         0 
dram[3]:         0         0         0         0         0         0         0         0         0         0         0         0         0         0         0         0 
dram[4]:         0         0         0         0         0         0         0         0         0         0         0         0         0         0         0         0 
dram[5]:         0         0         0         0         0         0         0         0         0         0         0         0         0         0         0         0 
total accesses: 0
min_bank_accesses = 0!
min_chip_accesses = 0!
number of total read accesses:
dram[0]:      3251      3246      3232      3232      3242      3242      3264      3264      3264      3264      3264      3264      3264      3264      3264      3264 
dram[1]:      3250      3246      3232      3232      3242      3242      3264      3264      3264      3264      3264      3264      3264      3264      3264      3264 
dram[2]:      3250      3246      3232      3232      3242      3244      3264      3264      3264      3264      3264      3264      3264      3264      3264      3264 
dram[3]:      3250      3246      3232      3232      3242      3244      3264      3264      3264      3264      3264      3264      3264      3264      3264      3264 
dram[4]:      3248      3246      3232      3232      3242      3244      3264      3264      3264      3264      3264      3264      3264      3264      3264      3264 
dram[5]:      3248      3246      3232      3232      3242      3244      3264      3264      3264      3264      3264      3264      3264      3264      3264      3264 
total reads: 312509
bank skew: 3264/3232 = 1.01
chip skew: 52086/52084 = 1.00
number of total write accesses:
dram[0]:      1286      1286      1280      1280      1290      1290      1312      1312      1312      1312      1312      1312      1312      1312      1312      1312 
dram[1]:      1286      1286      1280      1280      1290      1290      1312      1312      1312      1312      1312      1312      1312      1312      1312      1312 
dram[2]:      1286      1286      1280      1280      1290      1292      1312      1312      1312      1312      1312      1312      1312      1312      1312      1312 
dram[3]:      1286      1286      1280      1280      1290      1292      1312      1312      1312      1312      1312      1312      1312      1312      1312      1312 
dram[4]:      1286      1286      1280      1280      1290      1292      1312      1312      1312      1312      1312      1312      1312      1312      1312      1312 
dram[5]:      1286      1286      1280      1280      1290      1292      1312      1312      1312      1312      1312      1312      1312      1312      1312      1312 
total reads: 125000
bank skew: 1312/1280 = 1.02
chip skew: 20834/20832 = 1.00
average mf latency per bank:
dram[0]:        204       203       203       203       203       203       203       203       203       203       203       202       203       203       203       204
dram[1]:        204       204       204       203       204       203       204       204       203       203       203       203       203       203       204       203
dram[2]:        202       202       203       202       202       203       202       202       202       202       202       202       202       202       203       203
dram[3]:        203       204       203       203       203       204       202       203       202       203       203       203       202       203       203       204
dram[4]:        202       203       203       203       202       204       202       202       202       202       201       203       202       202       202       203
dram[5]:        203       203       203       203       203       203       202       203       202       203       203       202       202       203       202       203
maximum mf latency per bank:
dram[0]:        513       420       460       430       521       434       469       454       481       445       549       431       513       443       485       434
dram[1]:        497       440       443       422       495       430       445       457       462       459       560       450       439       434       441       442
dram[2]:        427       436       492       408       443       462       439       469       452       434       524       458       403       415       473       511
dram[3]:        448       443       454       480       511       473       456       440       468       488       505       498       432       431       452       498
dram[4]:        400       429       455       484       429       458       419       425       459       439       477       517       419       421       437       475
dram[5]:        433       445       427       430       420       476       416       455       421       563       478       498       447       438       427       537

Number of Memory Banks Accessed per Memory Operation per Warp (from 0):
0	0	0	0	0	0	0	0	0	0	0	0	0	0	0	0	0	0	0	0	0	0	0	0	0	0	0	0	0	0	0	0	0	0	0	0	0	0	0	0	0	0	0	0	0	0	0	0	0	0	0	0	0	0	0	0	0	0	0	0	0	0	0	0	0	0	0	0	0	0	0	0	0	0	0	0	0	0	0	0	0	0	0	0	0	0	0	0	0	0	0	0	0	0	0	0	
Average # of Memory Banks Accessed per Memory Operation per Warp=-nan

position of mrq chosen
0	0	0	0	0	0	0	0	0	0	0	0	0	0	0	0	

average position of mrq chosen = -nan
Memory Partition 0: 
Cache L2_bank_000:
MSHR contents

Cache L2_bank_001:
MSHR contents

In Dram Latency Queue (total = 0): 
DRAM[0]: 16 bks, busW=4 BL=8 CL=12, tRRD=2 tCCD=6, tRCD=12 tRAS=28 tRP=12 tRC=40
n_cmd=1070771 n_nop=867427 n_act=28763 n_pre=28747 n_req=72917 n_rd=104170 n_write=41664 bw_util=0.2724
n_activity=898014 dram_eff=0.3248
bk0: 6502a 967369i bk1: 6492a 966090i bk2: 6464a 967722i bk3: 6464a 965237i bk4: 6484a 966778i bk5: 6484a 964175i bk6: 6528a 964346i bk7: 6528a 962467i bk8: 6528a 965406i bk9: 6528a 964816i bk10: 6528a 966765i bk11: 6528a 964697i bk12: 6528a 964892i bk13: 6528a 964028i bk14: 6528a 963551i bk15: 6528a 960723i 
dram_util_bins: 0 0 0 0 0 0 0 0 0 0
dram_eff_bins: 0 0 0 0 0 0 0 0 0 0
mrqq: max=16 avg=1.41189
Memory Partition 1: 
Cache L2_bank_002:
MSHR contents

Cache L2_bank_003:
MSHR contents
MSHR: tag=0x80f20f00, atomic=0 1 entries : 0x7f7db812fcb0 :  mf: uid=3544160, sid14:w30, part=1, addr=0x80f20f00, load , size=128, unknown  status = IN_PARTITION_DRAM (811188), 

In Dram Latency Queue (total = 0): 
DRAM[1]: 16 bks, busW=4 BL=8 CL=12, tRRD=2 tCCD=6, tRCD=12 tRAS=28 tRP=12 tRC=40
n_cmd=1070771 n_nop=869173 n_act=27891 n_pre=27875 n_req=72916 n_rd=104168 n_write=41664 bw_util=0.2724
n_activity=882529 dram_eff=0.3305
bk0: 6500a 967611i bk1: 6492a 966282i bk2: 6464a 967469i bk3: 6464a 966948i bk4: 6484a 965722i bk5: 6484a 965848i bk6: 6528a 963273i bk7: 6528a 962218i bk8: 6528a 966339i bk9: 6528a 964854i bk10: 6528a 965504i bk11: 6528a 965500i bk12: 6528a 965712i bk13: 6528a 963533i bk14: 6528a 963218i bk15: 6528a 961327i 
dram_util_bins: 0 0 0 0 0 0 0 0 0 0
dram_eff_bins: 0 0 0 0 0 0 0 0 0 0
mrqq: max=16 avg=1.48232
Memory Partition 2: 
Cache L2_bank_004:
MSHR contents

Cache L2_bank_005:
MSHR contents

In Dram Latency Queue (total = 0): 
DRAM[2]: 16 bks, busW=4 BL=8 CL=12, tRRD=2 tCCD=6, tRCD=12 tRAS=28 tRP=12 tRC=40
n_cmd=1070771 n_nop=866015 n_act=29466 n_pre=29450 n_req=72920 n_rd=104172 n_write=41668 bw_util=0.2724
n_activity=898260 dram_eff=0.3247
bk0: 6500a 966841i bk1: 6492a 966147i bk2: 6464a 967120i bk3: 6464a 966842i bk4: 6484a 965579i bk5: 6488a 964346i bk6: 6528a 963163i bk7: 6528a 962394i bk8: 6528a 964372i bk9: 6528a 966135i bk10: 6528a 966144i bk11: 6528a 964317i bk12: 6528a 964569i bk13: 6528a 964124i bk14: 6528a 962207i bk15: 6528a 961717i 
dram_util_bins: 0 0 0 0 0 0 0 0 0 0
dram_eff_bins: 0 0 0 0 0 0 0 0 0 0
mrqq: max=16 avg=1.28466
Memory Partition 3: 
Cache L2_bank_006:
MSHR contents

Cache L2_bank_007:
MSHR contents

In Dram Latency Queue (total = 0): 
DRAM[3]: 16 bks, busW=4 BL=8 CL=12, tRRD=2 tCCD=6, tRCD=12 tRAS=28 tRP=12 tRC=40
n_cmd=1070771 n_nop=867321 n_act=28813 n_pre=28797 n_req=72920 n_rd=104172 n_write=41668 bw_util=0.2724
n_activity=874801 dram_eff=0.3334
bk0: 6500a 966228i bk1: 6492a 965332i bk2: 6464a 966648i bk3: 6464a 965774i bk4: 6484a 963407i bk5: 6488a 962962i bk6: 6528a 961849i bk7: 6528a 961169i bk8: 6528a 964239i bk9: 6528a 964079i bk10: 6528a 963896i bk11: 6528a 964073i bk12: 6528a 964677i bk13: 6528a 962887i bk14: 6528a 960515i bk15: 6528a 960111i 
dram_util_bins: 0 0 0 0 0 0 0 0 0 0
dram_eff_bins: 0 0 0 0 0 0 0 0 0 0
mrqq: max=16 avg=1.36016
Memory Partition 4: 
Cache L2_bank_008:
MSHR contents

Cache L2_bank_009:
MSHR contents

In Dram Latency Queue (total = 0): 
DRAM[4]: 16 bks, busW=4 BL=8 CL=12, tRRD=2 tCCD=6, tRCD=12 tRAS=28 tRP=12 tRC=40
n_cmd=1070771 n_nop=865331 n_act=29810 n_pre=29794 n_req=72918 n_rd=104168 n_write=41668 bw_util=0.2724
n_activity=886926 dram_eff=0.3289
bk0: 6496a 966570i bk1: 6492a 963426i bk2: 6464a 966164i bk3: 6464a 963419i bk4: 6484a 965779i bk5: 6488a 960964i bk6: 6528a 961908i bk7: 6528a 958730i bk8: 6528a 965056i bk9: 6528a 961231i bk10: 6528a 965329i bk11: 6528a 961265i bk12: 6528a 963751i bk13: 6528a 959541i bk14: 6528a 961589i bk15: 6528a 957057i 
dram_util_bins: 0 0 0 0 0 0 0 0 0 0
dram_eff_bins: 0 0 0 0 0 0 0 0 0 0
mrqq: max=16 avg=1.2603
Memory Partition 5: 
Cache L2_bank_010:
MSHR contents

Cache L2_bank_011:
MSHR contents

In Dram Latency Queue (total = 0): 
DRAM[5]: 16 bks, busW=4 BL=8 CL=12, tRRD=2 tCCD=6, tRCD=12 tRAS=28 tRP=12 tRC=40
n_cmd=1070771 n_nop=869825 n_act=27563 n_pre=27547 n_req=72918 n_rd=104168 n_write=41668 bw_util=0.2724
n_activity=867355 dram_eff=0.3363
bk0: 6496a 966780i bk1: 6492a 965945i bk2: 6464a 967431i bk3: 6464a 965420i bk4: 6484a 965706i bk5: 6488a 964531i bk6: 6528a 962769i bk7: 6528a 960569i bk8: 6528a 965243i bk9: 6528a 964866i bk10: 6528a 964397i bk11: 6528a 965395i bk12: 6528a 964544i bk13: 6528a 962309i bk14: 6528a 961720i bk15: 6528a 961021i 
dram_util_bins: 0 0 0 0 0 0 0 0 0 0
dram_eff_bins: 0 0 0 0 0 0 0 0 0 0
mrqq: max=16 avg=1.33394

========= L2 cache stats =========
L2_cache_bank[0]: Access = 26087, Miss = 26045, Miss_rate = 0.998, Pending_hits = 9, Reservation_fails = 342
L2_cache_bank[1]: Access = 26040, Miss = 26040, Miss_rate = 1.000, Pending_hits = 0, Reservation_fails = 0
L2_cache_bank[2]: Access = 26072, Miss = 26044, Miss_rate = 0.999, Pending_hits = 6, Reservation_fails = 186
L2_cache_bank[3]: Access = 26040, Miss = 26040, Miss_rate = 1.000, Pending_hits = 0, Reservation_fails = 0
L2_cache_bank[4]: Access = 26072, Miss = 26044, Miss_rate = 0.999, Pending_hits = 6, Reservation_fails = 201
L2_cache_bank[5]: Access = 26042, Miss = 26042, Miss_rate = 1.000, Pending_hits = 0, Reservation_fails = 0
L2_cache_bank[6]: Access = 26072, Miss = 26044, Miss_rate = 0.999, Pending_hits = 6, Reservation_fails = 199
L2_cache_bank[7]: Access = 26042, Miss = 26042, Miss_rate = 1.000, Pending_hits = 0, Reservation_fails = 0
L2_cache_bank[8]: Access = 26042, Miss = 26042, Miss_rate = 1.000, Pending_hits = 0, Reservation_fails = 0
L2_cache_bank[9]: Access = 26042, Miss = 26042, Miss_rate = 1.000, Pending_hits = 0, Reservation_fails = 0
L2_cache_bank[10]: Access = 26042, Miss = 26042, Miss_rate = 1.000, Pending_hits = 0, Reservation_fails = 0
L2_cache_bank[11]: Access = 26042, Miss = 26042, Miss_rate = 1.000, Pending_hits = 0, Reservation_fails = 0
L2_total_cache_accesses = 312635
L2_total_cache_misses = 312509
L2_total_cache_miss_rate = 0.9996
L2_total_cache_pending_hits = 27
L2_total_cache_reservation_fails = 928
L2_total_cache_breakdown:
	L2_cache_stats_breakdown[GLOBAL_ACC_R][MISS] = 187500
	L2_cache_stats_breakdown[CONST_ACC_R][HIT] = 11
	L2_cache_stats_breakdown[CONST_ACC_R][HIT_RESERVED] = 3
	L2_cache_stats_breakdown[CONST_ACC_R][MISS] = 1
	L2_cache_stats_breakdown[CONST_ACC_R][RESERVATION_FAIL] = 109
	L2_cache_stats_breakdown[GLOBAL_ACC_W][MISS] = 125000
	L2_cache_stats_breakdown[INST_ACC_R][HIT] = 88
	L2_cache_stats_breakdown[INST_ACC_R][HIT_RESERVED] = 24
	L2_cache_stats_breakdown[INST_ACC_R][MISS] = 8
	L2_cache_stats_breakdown[INST_ACC_R][RESERVATION_FAIL] = 819
L2_cache_data_port_util = 0.000
L2_cache_fill_port_util = 0.128

icnt_total_pkts_mem_to_simt=1063145
icnt_total_pkts_simt_to_mem=812635
LD_mem_lat_dist  0 0 0 0 0 0 0 0 0 0 0 0 0 0 0 0 0 0 0 0 0 0 0 0 0 0 0
ST_mem_lat_dist  0 0 0 0 0 0 0 0 0 0 0 0 0 0 0 0 0 0 0 0 0 0 0 0 0 0 0
----------------------------Interconnect-DETAILS--------------------------------
Class 0:
Packet latency average = 10.3172
	minimum = 6
	maximum = 64
Network latency average = 10.0645
	minimum = 6
	maximum = 52
Slowest packet = 230
Flit latency average = 8.27736
	minimum = 6
	maximum = 48
Slowest flit = 1073561
Fragmentation average = 0
	minimum = 0
	maximum = 0
Injected packet rate average = 0.0285483
	minimum = 0.0256771 (at node 1)
	maximum = 0.0321589 (at node 15)
Accepted packet rate average = 0.0285483
	minimum = 0.0256771 (at node 1)
	maximum = 0.0321589 (at node 15)
Injected flit rate average = 0.0856436
	minimum = 0.0667426 (at node 1)
	maximum = 0.109396 (at node 15)
Accepted flit rate average= 0.0856436
	minimum = 0.0834625 (at node 16)
	maximum = 0.0874011 (at node 0)
Injected packet length average = 2.99995
Accepted packet length average = 2.99995
Total in-flight flits = 0 (0 measured)
====== Overall Traffic Statistics ======
====== Traffic class 0 ======
Packet latency average = 10.3172 (1 samples)
	minimum = 6 (1 samples)
	maximum = 64 (1 samples)
Network latency average = 10.0645 (1 samples)
	minimum = 6 (1 samples)
	maximum = 52 (1 samples)
Flit latency average = 8.27736 (1 samples)
	minimum = 6 (1 samples)
	maximum = 48 (1 samples)
Fragmentation average = 0 (1 samples)
	minimum = 0 (1 samples)
	maximum = 0 (1 samples)
Injected packet rate average = 0.0285483 (1 samples)
	minimum = 0.0256771 (1 samples)
	maximum = 0.0321589 (1 samples)
Accepted packet rate average = 0.0285483 (1 samples)
	minimum = 0.0256771 (1 samples)
	maximum = 0.0321589 (1 samples)
Injected flit rate average = 0.0856436 (1 samples)
	minimum = 0.0667426 (1 samples)
	maximum = 0.109396 (1 samples)
Accepted flit rate average = 0.0856436 (1 samples)
	minimum = 0.0834625 (1 samples)
	maximum = 0.0874011 (1 samples)
Injected packet size average = 2.99995 (1 samples)
Accepted packet size average = 2.99995 (1 samples)
Hops average = 1 (1 samples)
----------------------------END-of-Interconnect-DETAILS-------------------------


gpgpu_simulation_time = 0 days, 0 hrs, 7 min, 23 sec (443 sec)
gpgpu_simulation_rate = 441945 (inst/sec)
gpgpu_simulation_rate = 1831 (cycle/sec)
GPGPU-Sim: synchronize waiting for inactive GPU simulation
GPGPU-Sim API: Stream Manager State
GPGPU-Sim: detected inactive GPU simulation thread
Options count             : 4000000     
BlackScholesGPU() time    : 441774.250000 msec
Effective memory bandwidth: 0.000091 GB/s
Gigaoptions per second    : 0.000009     
Reading back GPU results...
Checking the results...
...running CPU calculations.
Comparing the results...
L1 norm: 1.729535E-07
Max absolute error: 1.192093E-05
TEST PASSED
Shutting down...
...releasing GPU memory.
...releasing CPU memory.
Shutdown done.
GPGPU-Sim: exit_simulation called
GPGPU-Sim: simulation thread signaled exit

Press ENTER to exit...
