

        *** GPGPU-Sim Simulator Version 3.2.2  [build 0] ***


GPGPU-Sim PTX: simulation mode 0 (can change with PTX_SIM_MODE_FUNC environment variable:
               1=functional simulation only, 0=detailed performance simulator)
GPGPU-Sim: Configuration options:

-network_mode                           1 # Interconnection network mode
-inter_config_file   config_fermi_islip.icnt # Interconnection network config file
-gpgpu_ptx_use_cuobjdump                    1 # Use cuobjdump to extract ptx and sass from binaries
-gpgpu_experimental_lib_support                    0 # Try to extract code from cuda libraries [Broken because of unknown cudaGetExportTable]
-gpgpu_ptx_convert_to_ptxplus                    0 # Convert SASS (native ISA) to ptxplus and run ptxplus
-gpgpu_ptx_force_max_capability                   20 # Force maximum compute capability
-gpgpu_ptx_inst_debug_to_file                    0 # Dump executed instructions' debug information to file
-gpgpu_ptx_inst_debug_file       inst_debug.txt # Executed instructions' debug output file
-gpgpu_ptx_inst_debug_thread_uid                    1 # Thread UID for executed instructions' debug output
-gpgpu_simd_model                       1 # 1 = post-dominator
-gpgpu_shader_core_pipeline              1536:32 # shader core pipeline config, i.e., {<nthread>:<warpsize>}
-gpgpu_tex_cache:l1  4:128:24,L:R:m:N:L,F:128:4,128:2 # per-shader L1 texture cache  (READ-ONLY) config  {<nsets>:<bsize>:<assoc>,<rep>:<wr>:<alloc>:<wr_alloc>,<mshr>:<N>:<merge>,<mq>:<rf>}
-gpgpu_const_cache:l1 64:64:2,L:R:f:N:L,A:2:32,4 # per-shader L1 constant memory cache  (READ-ONLY) config  {<nsets>:<bsize>:<assoc>,<rep>:<wr>:<alloc>:<wr_alloc>,<mshr>:<N>:<merge>,<mq>} 
-gpgpu_cache:il1     4:128:4,L:R:f:N:L,A:2:32,4 # shader L1 instruction cache config  {<nsets>:<bsize>:<assoc>,<rep>:<wr>:<alloc>:<wr_alloc>,<mshr>:<N>:<merge>,<mq>} 
-gpgpu_cache:dl1     32:128:4,L:L:m:N:H,A:32:8,8:2,0,1:0:1:1:0:1,1:4:8:16:32:64,/sciclone/data10/hwang07/GPU_RESEARCH/swl/swl_outputs/RESULTS/lrr/ # per-shader L1 data cache config  {<nsets>:<bsize>:<assoc>,<rep>:<wr>:<alloc>:<wr_alloc>,<mshr>:<N>:<merge>,<mq> | none}
-gpgpu_cache:dl1PrefL1                 none # per-shader L1 data cache config  {<nsets>:<bsize>:<assoc>,<rep>:<wr>:<alloc>:<wr_alloc>,<mshr>:<N>:<merge>,<mq> | none}
-gpgpu_cache:dl1PreShared                 none # per-shader L1 data cache config  {<nsets>:<bsize>:<assoc>,<rep>:<wr>:<alloc>:<wr_alloc>,<mshr>:<N>:<merge>,<mq> | none}
-gmem_skip_L1D                          0 # global memory access skip L1D cache (implements -Xptxas -dlcm=cg, default=no skip)
-gpgpu_perfect_mem                      0 # enable perfect memory mode (no cache miss)
-n_regfile_gating_group                    4 # group of lanes that should be read/written together)
-gpgpu_clock_gated_reg_file                    0 # enable clock gated reg file for power calculations
-gpgpu_clock_gated_lanes                    0 # enable clock gated lanes for power calculations
-gpgpu_shader_registers                32768 # Number of registers per shader core. Limits number of concurrent CTAs. (default 8192)
-gpgpu_shader_cta                       8 # Maximum number of concurrent CTAs in shader (default 8)
-gpgpu_num_cta_barriers                   16 # Maximum number of named barriers per CTA (default 16)
-gpgpu_n_clusters                      15 # number of processing clusters
-gpgpu_n_cores_per_cluster                    1 # number of simd cores per cluster
-gpgpu_n_cluster_ejection_buffer_size                    8 # number of packets in ejection buffer
-gpgpu_n_ldst_response_buffer_size                    2 # number of response packets in ld/st unit ejection buffer
-gpgpu_shmem_size                   16384 # Size of shared memory per shader core (default 16kB)
-gpgpu_shmem_size                   49152 # Size of shared memory per shader core (default 16kB)
-gpgpu_shmem_size_PrefL1                16384 # Size of shared memory per shader core (default 16kB)
-gpgpu_shmem_size_PrefShared                16384 # Size of shared memory per shader core (default 16kB)
-gpgpu_shmem_num_banks                   32 # Number of banks in the shared memory in each shader core (default 16)
-gpgpu_shmem_limited_broadcast                    0 # Limit shared memory to do one broadcast per cycle (default on)
-gpgpu_shmem_warp_parts                    1 # Number of portions a warp is divided into for shared memory bank conflict check 
-gpgpu_warpdistro_shader                   -1 # Specify which shader core to collect the warp size distribution from
-gpgpu_warp_issue_shader                    0 # Specify which shader core to collect the warp issue distribution from
-gpgpu_local_mem_map                    1 # Mapping from local memory space address to simulated GPU physical address space (default = enabled)
-gpgpu_num_reg_banks                   16 # Number of register banks (default = 8)
-gpgpu_reg_bank_use_warp_id                    0 # Use warp ID in mapping registers to banks (default = off)
-gpgpu_operand_collector_num_units_sp                    6 # number of collector units (default = 4)
-gpgpu_operand_collector_num_units_sfu                    8 # number of collector units (default = 4)
-gpgpu_operand_collector_num_units_mem                    2 # number of collector units (default = 2)
-gpgpu_operand_collector_num_units_gen                    0 # number of collector units (default = 0)
-gpgpu_operand_collector_num_in_ports_sp                    2 # number of collector unit in ports (default = 1)
-gpgpu_operand_collector_num_in_ports_sfu                    1 # number of collector unit in ports (default = 1)
-gpgpu_operand_collector_num_in_ports_mem                    1 # number of collector unit in ports (default = 1)
-gpgpu_operand_collector_num_in_ports_gen                    0 # number of collector unit in ports (default = 0)
-gpgpu_operand_collector_num_out_ports_sp                    2 # number of collector unit in ports (default = 1)
-gpgpu_operand_collector_num_out_ports_sfu                    1 # number of collector unit in ports (default = 1)
-gpgpu_operand_collector_num_out_ports_mem                    1 # number of collector unit in ports (default = 1)
-gpgpu_operand_collector_num_out_ports_gen                    0 # number of collector unit in ports (default = 0)
-gpgpu_coalesce_arch                   13 # Coalescing arch (default = 13, anything else is off for now)
-gpgpu_num_sched_per_core                    2 # Number of warp schedulers per core
-gpgpu_max_insn_issue_per_warp                    1 # Max number of instructions that can be issued per warp in one cycle by scheduler
-gpgpu_simt_core_sim_order                    1 # Select the simulation order of cores in a cluster (0=Fix, 1=Round-Robin)
-gpgpu_pipeline_widths        2,1,1,2,1,1,2 # Pipeline widths ID_OC_SP,ID_OC_SFU,ID_OC_MEM,OC_EX_SP,OC_EX_SFU,OC_EX_MEM,EX_WB
-gpgpu_num_sp_units                     2 # Number of SP units (default=1)
-gpgpu_num_sfu_units                    1 # Number of SF units (default=1)
-gpgpu_num_mem_units                    1 # Number if ldst units (default=1) WARNING: not hooked up to anything
-gpgpu_scheduler                      lrr # Scheduler configuration: < lrr | gto | two_level_active > If two_level_active:<num_active_warps>:<inner_prioritization>:<outer_prioritization>For complete list of prioritization values see shader.h enum scheduler_prioritization_typeDefault: gto
-gpgpu_dram_scheduler                    1 # 0 = fifo, 1 = FR-FCFS (defaul)
-gpgpu_dram_partition_queues              8:8:8:8 # i2$:$2d:d2$:$2i
-l2_ideal                               0 # Use a ideal L2 cache that always hit
-gpgpu_cache:dl2     64:128:8,L:B:m:W:L,A:32:4,4:0,32 # unified banked L2 data cache config  {<nsets>:<bsize>:<assoc>,<rep>:<wr>:<alloc>:<wr_alloc>,<mshr>:<N>:<merge>,<mq>}
-gpgpu_cache:dl2_texture_only                    0 # L2 cache used for texture only
-gpgpu_n_mem                            6 # number of memory modules (e.g. memory controllers) in gpu
-gpgpu_n_sub_partition_per_mchannel                    2 # number of memory subpartition in each memory module
-gpgpu_n_mem_per_ctrlr                    2 # number of memory chips per memory controller
-gpgpu_memlatency_stat                   14 # track and display latency statistics 0x2 enables MC, 0x4 enables queue logs
-gpgpu_frfcfs_dram_sched_queue_size                   16 # 0 = unlimited (default); # entries per chip
-gpgpu_dram_return_queue_size                  116 # 0 = unlimited (default); # entries per chip
-gpgpu_dram_buswidth                    4 # default = 4 bytes (8 bytes per cycle at DDR)
-gpgpu_dram_burst_length                    8 # Burst length of each DRAM request (default = 4 data bus cycle)
-dram_data_command_freq_ratio                    4 # Frequency ratio between DRAM data bus and command bus (default = 2 times, i.e. DDR)
-gpgpu_dram_timing_opt nbk=16:CCD=2:RRD=6:RCD=12:RAS=28:RP=12:RC=40: CL=12:WL=4:CDLR=5:WR=12:nbkgrp=4:CCDL=3:RTPL=2 # DRAM timing parameters = {nbk:tCCD:tRRD:tRCD:tRAS:tRP:tRC:CL:WL:tCDLR:tWR:nbkgrp:tCCDL:tRTPL}
-rop_latency                          120 # ROP queue latency (default 85)
-dram_latency                         100 # DRAM latency (default 30)
-gpgpu_mem_addr_mapping dramid@8;00000000.00000000.00000000.00000000.0000RRRR.RRRRRRRR.BBBCCCCB.CCSSSSSS # mapping memory address to dram model {dramid@<start bit>;<memory address map>}
-gpgpu_mem_addr_test                    0 # run sweep test to check address mapping for aliased address
-gpgpu_mem_address_mask                    1 # 0 = old addressing mask, 1 = new addressing mask, 2 = new add. mask + flipped bank sel and chip sel bits
-gpuwattch_xml_file  gpuwattch_gtx480.xml # GPUWattch XML file
-power_simulation_enabled                    0 # Turn on power simulator (1=On, 0=Off)
-power_per_cycle_dump                    0 # Dump detailed power output each cycle
-power_trace_enabled                    0 # produce a file for the power trace (1=On, 0=Off)
-power_trace_zlevel                     6 # Compression level of the power trace output log (0=no comp, 9=highest)
-steady_power_levels_enabled                    0 # produce a file for the steady power levels (1=On, 0=Off)
-steady_state_definition                  8:4 # allowed deviation:number of samples
-gpgpu_max_cycle                        0 # terminates gpu simulation early (0 = no limit)
-gpgpu_max_insn                         0 # terminates gpu simulation early (0 = no limit)
-gpgpu_max_cta                          0 # terminates gpu simulation early (0 = no limit)
-gpgpu_runtime_stat                   500 # display runtime statistics such as dram utilization {<freq>:<flag>}
-liveness_message_freq                    1 # Minimum number of seconds between simulation liveness messages (0 = always print)
-gpgpu_flush_l1_cache                    0 # Flush L1 cache at the end of each kernel call
-gpgpu_flush_l2_cache                    0 # Flush L2 cache at the end of each kernel call
-gpgpu_deadlock_detect                    1 # Stop the simulation at deadlock (1=on (default), 0=off)
-gpgpu_ptx_instruction_classification                    0 # if enabled will classify ptx instruction types per kernel (Max 255 kernels now)
-gpgpu_ptx_sim_mode                     0 # Select between Performance (default) or Functional simulation (1)
-gpgpu_clock_domains 700.0:700.0:700.0:924.0 # Clock Domain Frequencies in MhZ {<Core Clock>:<ICNT Clock>:<L2 Clock>:<DRAM Clock>}
-gpgpu_max_concurrent_kernel                    8 # maximum kernels that can run concurrently on GPU
-gpgpu_cflog_interval                    0 # Interval between each snapshot in control flow logger
-visualizer_enabled                     0 # Turn on visualizer output (1=On, 0=Off)
-visualizer_outputfile                 NULL # Specifies the output log file for visualizer
-visualizer_zlevel                      6 # Compression level of the visualizer output log (0=no comp, 9=highest)
-trace_enabled                          0 # Turn on traces
-trace_components                    none # comma seperated list of traces to enable. Complete list found in trace_streams.tup. Default none
-trace_sampling_core                    0 # The core which is printed using CORE_DPRINTF. Default 0
-trace_sampling_memory_partition                   -1 # The memory partition which is printed using MEMPART_DPRINTF. Default -1 (i.e. all)
-enable_ptx_file_line_stats                    1 # Turn on PTX source line statistic profiling. (1 = On)
-ptx_line_stats_filename gpgpu_inst_stats.txt # Output file for PTX source line statistics.
-save_embedded_ptx                      0 # saves ptx files embedded in binary as <n>.ptx
-keep                                   0 # keep intermediate files created by GPGPU-Sim when interfacing with external programs
-gpgpu_ptx_save_converted_ptxplus                    0 # Saved converted ptxplus to a file
-ptx_opcode_latency_int         4,13,4,5,145 # Opcode latencies for integers <ADD,MAX,MUL,MAD,DIV>Default 1,1,19,25,145
-ptx_opcode_latency_fp          4,13,4,5,39 # Opcode latencies for single precision floating points <ADD,MAX,MUL,MAD,DIV>Default 1,1,1,1,30
-ptx_opcode_latency_dp         8,19,8,8,330 # Opcode latencies for double precision floating points <ADD,MAX,MUL,MAD,DIV>Default 8,8,8,8,335
-ptx_opcode_initiation_int            1,2,2,1,8 # Opcode initiation intervals for integers <ADD,MAX,MUL,MAD,DIV>Default 1,1,4,4,32
-ptx_opcode_initiation_fp            1,2,1,1,4 # Opcode initiation intervals for single precision floating points <ADD,MAX,MUL,MAD,DIV>Default 1,1,1,1,5
-ptx_opcode_initiation_dp         8,16,8,8,130 # Opcode initiation intervals for double precision floating points <ADD,MAX,MUL,MAD,DIV>Default 8,8,8,8,130
DRAM Timing Options:
nbk                                    16 # number of banks
CCD                                     2 # column to column delay
RRD                                     6 # minimal delay between activation of rows in different banks
RCD                                    12 # row to column delay
RAS                                    28 # time needed to activate row
RP                                     12 # time needed to precharge (deactivate) row
RC                                     40 # row cycle time
CDLR                                    5 # switching from write to read (changes tWTR)
WR                                     12 # last data-in to row precharge
CL                                     12 # CAS latency
WL                                      4 # Write latency
nbkgrp                                  4 # number of bank groups
CCDL                                    3 # column to column delay between accesses to different bank groups
RTPL                                    2 # read to precharge delay between accesses to different bank groups
Total number of memory sub partition = 12
addr_dec_mask[CHIP]  = 0000000000000000 	high:64 low:0
addr_dec_mask[BK]    = 000000000000e100 	high:16 low:8
addr_dec_mask[ROW]   = 000000000fff0000 	high:28 low:16
addr_dec_mask[COL]   = 0000000000001eff 	high:13 low:0
addr_dec_mask[BURST] = 000000000000003f 	high:6 low:0
sub_partition_id_mask = 0000000000000100
GPGPU-Sim uArch: clock freqs: 700000000.000000:700000000.000000:700000000.000000:924000000.000000
GPGPU-Sim uArch: clock periods: 0.00000000142857142857:0.00000000142857142857:0.00000000142857142857:0.00000000108225108225
*** Initializing Memory Statistics ***
GPGPU-Sim uArch: interconnect node map (shaderID+MemID to icntID)
GPGPU-Sim uArch: Memory nodes ID start from index: 15
GPGPU-Sim uArch:    0   1   2   3   4
GPGPU-Sim uArch:    5   6   7   8   9
GPGPU-Sim uArch:   10  11  12  13  14
GPGPU-Sim uArch:   15  16  17  18  19
GPGPU-Sim uArch:   20  21  22  23  24
GPGPU-Sim uArch:   25  26
GPGPU-Sim uArch: interconnect node reverse map (icntID to shaderID+MemID)
GPGPU-Sim uArch: Memory nodes start from ID: 15
GPGPU-Sim uArch:    0   1   2   3   4
GPGPU-Sim uArch:    5   6   7   8   9
GPGPU-Sim uArch:   10  11  12  13  14
GPGPU-Sim uArch:   15  16  17  18  19
GPGPU-Sim uArch:   20  21  22  23  24
GPGPU-Sim uArch:   25  26
8ef9342edb8cdfc3e3546abba4d98120  /sciclone/data10/hwang07/adwait/applications/benchmarks/CUDA/NN/gpgpu_ptx_sim__NN
GPGPU-Sim uArch: performance model initialization complete.
GPGPU-Sim PTX: __cudaRegisterFatBinary, fat_cubin_handle = 1, filename=NN.cu
self exe links to: /sciclone/data10/hwang07/adwait/applications/benchmarks/CUDA/NN/gpgpu_ptx_sim__NN
Running md5sum using "md5sum /sciclone/data10/hwang07/adwait/applications/benchmarks/CUDA/NN/gpgpu_ptx_sim__NN "
Parsing file _cuobjdump_complete_output_tmR7Mm
######### cuobjdump parser ########
## Adding new section ELF
Adding arch: sm_20
Adding identifier: NN.cu
## Adding new section PTX
Adding ptx filename: _cuobjdump_1.ptx
Adding arch: sm_20
Adding identifier: NN.cu
Done parsing!!!
GPGPU-Sim PTX: __cudaRegisterFunction _Z18executeFourthLayerPfS_S_ : hostFun 0x0x4028e3, fat_cubin_handle = 1
GPGPU-Sim PTX: allocating constant region for "kernelTemplate" from 0x100 to 0x164 (global memory space) 1
GPGPU-Sim PTX: instruction assembly for function '_Z17executeFirstLayerPfS_S_'...   done.
GPGPU-Sim PTX: finding reconvergence points for '_Z17executeFirstLayerPfS_S_'...
GPGPU-Sim PTX: Finding dominators for '_Z17executeFirstLayerPfS_S_'...
GPGPU-Sim PTX: Finding immediate dominators for '_Z17executeFirstLayerPfS_S_'...
GPGPU-Sim PTX: Finding postdominators for '_Z17executeFirstLayerPfS_S_'...
GPGPU-Sim PTX: Finding immediate postdominators for '_Z17executeFirstLayerPfS_S_'...
GPGPU-Sim PTX: pre-decoding instructions for '_Z17executeFirstLayerPfS_S_'...
GPGPU-Sim PTX: reconvergence points for _Z17executeFirstLayerPfS_S_...
GPGPU-Sim PTX:  1 (potential) branch divergence @  PC=0x100 (_1.ptx:100) @%p1 bra $Lt_0_4098;
GPGPU-Sim PTX:    immediate post dominator      @  PC=0x108 (_1.ptx:102) cvt.f64.f32 %fd1, %f1;
GPGPU-Sim PTX:  2 (potential) branch divergence @  PC=0x148 (_1.ptx:110) @!%p2 bra $Lt_0_4866;
GPGPU-Sim PTX:    immediate post dominator      @  PC=0x2a8 (_1.ptx:162) cvt.f64.f32 %fd5, %f29;
GPGPU-Sim PTX:  3 (potential) branch divergence @  PC=0x230 (_1.ptx:142) bra.uni $Lt_0_4610;
GPGPU-Sim PTX:    immediate post dominator      @  PC=0x2a8 (_1.ptx:162) cvt.f64.f32 %fd5, %f29;
GPGPU-Sim PTX: ... end of reconvergence points for _Z17executeFirstLayerPfS_S_
GPGPU-Sim PTX: ... done pre-decoding instructions for '_Z17executeFirstLayerPfS_S_'.
GPGPU-Sim PTX: allocating constant region for "kernelTemplate2" from 0x180 to 0x1e4 (global memory space) 2
GPGPU-Sim PTX: instruction assembly for function '_Z18executeSecondLayerPfS_S_'...   done.
GPGPU-Sim PTX: finding reconvergence points for '_Z18executeSecondLayerPfS_S_'...
GPGPU-Sim PTX: Finding dominators for '_Z18executeSecondLayerPfS_S_'...
GPGPU-Sim PTX: Finding immediate dominators for '_Z18executeSecondLayerPfS_S_'...
GPGPU-Sim PTX: Finding postdominators for '_Z18executeSecondLayerPfS_S_'...
GPGPU-Sim PTX: Finding immediate postdominators for '_Z18executeSecondLayerPfS_S_'...
GPGPU-Sim PTX: pre-decoding instructions for '_Z18executeSecondLayerPfS_S_'...
GPGPU-Sim PTX: reconvergence points for _Z18executeSecondLayerPfS_S_...
GPGPU-Sim PTX:  1 (potential) branch divergence @  PC=0x4a0 (_1.ptx:251) @%p1 bra $Lt_1_5634;
GPGPU-Sim PTX:    immediate post dominator      @  PC=0x4a8 (_1.ptx:253) cvt.f64.f32 %fd1, %f1;
GPGPU-Sim PTX:  2 (potential) branch divergence @  PC=0x4e8 (_1.ptx:261) @!%p2 bra $Lt_1_6402;
GPGPU-Sim PTX:    immediate post dominator      @  PC=0x648 (_1.ptx:313) cvt.f64.f32 %fd5, %f44;
GPGPU-Sim PTX:  3 (potential) branch divergence @  PC=0x5d0 (_1.ptx:293) bra.uni $Lt_1_6146;
GPGPU-Sim PTX:    immediate post dominator      @  PC=0x648 (_1.ptx:313) cvt.f64.f32 %fd5, %f44;
GPGPU-Sim PTX: ... end of reconvergence points for _Z18executeSecondLayerPfS_S_
GPGPU-Sim PTX: ... done pre-decoding instructions for '_Z18executeSecondLayerPfS_S_'.
GPGPU-Sim PTX: instruction assembly for function '_Z17executeThirdLayerPfS_S_'...   done.
GPGPU-Sim PTX: finding reconvergence points for '_Z17executeThirdLayerPfS_S_'...
GPGPU-Sim PTX: Finding dominators for '_Z17executeThirdLayerPfS_S_'...
GPGPU-Sim PTX: Finding immediate dominators for '_Z17executeThirdLayerPfS_S_'...
GPGPU-Sim PTX: Finding postdominators for '_Z17executeThirdLayerPfS_S_'...
GPGPU-Sim PTX: Finding immediate postdominators for '_Z17executeThirdLayerPfS_S_'...
GPGPU-Sim PTX: pre-decoding instructions for '_Z17executeThirdLayerPfS_S_'...
GPGPU-Sim PTX: reconvergence points for _Z17executeThirdLayerPfS_S_...
GPGPU-Sim PTX:  1 (potential) branch divergence @  PC=0x788 (_1.ptx:373) @%p1 bra $Lt_2_4098;
GPGPU-Sim PTX:    immediate post dominator      @  PC=0x790 (_1.ptx:375) cvt.f64.f32 %fd1, %f1;
GPGPU-Sim PTX:  2 (potential) branch divergence @  PC=0x7d0 (_1.ptx:383) @!%p2 bra $Lt_2_4866;
GPGPU-Sim PTX:    immediate post dominator      @  PC=0x930 (_1.ptx:435) cvt.f64.f32 %fd5, %f29;
GPGPU-Sim PTX:  3 (potential) branch divergence @  PC=0x8b8 (_1.ptx:415) bra.uni $Lt_2_4610;
GPGPU-Sim PTX:    immediate post dominator      @  PC=0x930 (_1.ptx:435) cvt.f64.f32 %fd5, %f29;
GPGPU-Sim PTX: ... end of reconvergence points for _Z17executeThirdLayerPfS_S_
GPGPU-Sim PTX: ... done pre-decoding instructions for '_Z17executeThirdLayerPfS_S_'.
GPGPU-Sim PTX: instruction assembly for function '_Z18executeFourthLayerPfS_S_'...   done.
GPGPU-Sim PTX: finding reconvergence points for '_Z18executeFourthLayerPfS_S_'...
GPGPU-Sim PTX: Finding dominators for '_Z18executeFourthLayerPfS_S_'...
GPGPU-Sim PTX: Finding immediate dominators for '_Z18executeFourthLayerPfS_S_'...
GPGPU-Sim PTX: Finding postdominators for '_Z18executeFourthLayerPfS_S_'...
GPGPU-Sim PTX: Finding immediate postdominators for '_Z18executeFourthLayerPfS_S_'...
GPGPU-Sim PTX: pre-decoding instructions for '_Z18executeFourthLayerPfS_S_'...
GPGPU-Sim PTX: reconvergence points for _Z18executeFourthLayerPfS_S_...
GPGPU-Sim PTX:  1 (potential) branch divergence @  PC=0xa50 (_1.ptx:491) @%p1 bra $Lt_3_4098;
GPGPU-Sim PTX:    immediate post dominator      @  PC=0xa58 (_1.ptx:493) cvt.f64.f32 %fd1, %f1;
GPGPU-Sim PTX:  2 (potential) branch divergence @  PC=0xa98 (_1.ptx:501) @!%p2 bra $Lt_3_4866;
GPGPU-Sim PTX:    immediate post dominator      @  PC=0xbf8 (_1.ptx:553) cvt.f64.f32 %fd5, %f29;
GPGPU-Sim PTX:  3 (potential) branch divergence @  PC=0xb80 (_1.ptx:533) bra.uni $Lt_3_4610;
GPGPU-Sim PTX:    immediate post dominator      @  PC=0xbf8 (_1.ptx:553) cvt.f64.f32 %fd5, %f29;
GPGPU-Sim PTX: ... end of reconvergence points for _Z18executeFourthLayerPfS_S_
GPGPU-Sim PTX: ... done pre-decoding instructions for '_Z18executeFourthLayerPfS_S_'.
GPGPU-Sim PTX: finished parsing EMBEDDED .ptx file _1.ptx
Adding _cuobjdump_1.ptx with cubin handle 1
GPGPU-Sim PTX: extracting embedded .ptx to temporary file "_ptx_6Z6Gyo"
Running: cat _ptx_6Z6Gyo | sed 's/.version 1.5/.version 1.4/' | sed 's/, texmode_independent//' | sed 's/\(\.extern \.const\[1\] .b8 \w\+\)\[\]/\1\[1\]/' | sed 's/const\[.\]/const\[0\]/g' > _ptx2_uLlfet
GPGPU-Sim PTX: generating ptxinfo using "$CUDA_INSTALL_PATH/bin/ptxas --gpu-name=sm_20 -v _ptx2_uLlfet --output-file  /dev/null 2> _ptx_6Z6Gyoinfo"
GPGPU-Sim PTX: Kernel '_Z18executeFourthLayerPfS_S_' : regs=12, lmem=0, smem=0, cmem=288
GPGPU-Sim PTX: Kernel '_Z17executeThirdLayerPfS_S_' : regs=12, lmem=0, smem=0, cmem=288
GPGPU-Sim PTX: Kernel '_Z18executeSecondLayerPfS_S_' : regs=22, lmem=0, smem=0, cmem=288
GPGPU-Sim PTX: Kernel '_Z17executeFirstLayerPfS_S_' : regs=17, lmem=0, smem=0, cmem=288
GPGPU-Sim PTX: removing ptxinfo using "rm -f _ptx_6Z6Gyo _ptx2_uLlfet _ptx_6Z6Gyoinfo"
GPGPU-Sim PTX: loading globals with explicit initializers... 
GPGPU-Sim PTX: finished loading globals (0 bytes total).
GPGPU-Sim PTX: loading constants with explicit initializers...  done.
GPGPU-Sim PTX: __cudaRegisterFunction _Z17executeThirdLayerPfS_S_ : hostFun 0x0x402821, fat_cubin_handle = 1
GPGPU-Sim PTX: __cudaRegisterFunction _Z18executeSecondLayerPfS_S_ : hostFun 0x0x40275f, fat_cubin_handle = 1
GPGPU-Sim PTX: __cudaRegisterFunction _Z17executeFirstLayerPfS_S_ : hostFun 0x0x40269d, fat_cubin_handle = 1
GPGPU-Sim PTX: __cudaRegisterVar: hostVar = 0x609e60; deviceAddress = kernelTemplate; deviceName = kernelTemplate
GPGPU-Sim PTX: __cudaRegisterVar: Registering const memory space of 100 bytes
GPGPU-Sim PTX registering constant kernelTemplate (100 bytes) to name mapping
GPGPU-Sim PTX: __cudaRegisterVar: hostVar = 0x609ee0; deviceAddress = kernelTemplate2; deviceName = kernelTemplate2
GPGPU-Sim PTX: __cudaRegisterVar: Registering const memory space of 100 bytes
GPGPU-Sim PTX registering constant kernelTemplate2 (100 bytes) to name mapping
magic number = 2051
number of items = 10000
number of rows = 28
number of rows = 28
NUM=28

GPGPU-Sim PTX: cudaLaunch for 0x0x40269d (mode=performance simulation) on stream 0
GPGPU-Sim PTX: pushing kernel '_Z17executeFirstLayerPfS_S_' to stream 0, gridDim= (6,28,1) blockDim = (13,13,1) 
kernel '_Z17executeFirstLayerPfS_S_' transfer to GPU hardware scheduler
GPGPU-Sim uArch: Shader 1 bind to kernel 1 '_Z17executeFirstLayerPfS_S_'
GPGPU-Sim uArch: CTA/core = 8, limited by: threads regs cta_limit
GPGPU-Sim uArch: core:  1, cta: 0 initialized @(1,0)
GPGPU-Sim uArch: Shader 2 bind to kernel 1 '_Z17executeFirstLayerPfS_S_'
GPGPU-Sim uArch: core:  2, cta: 0 initialized @(1,0)
GPGPU-Sim uArch: Shader 3 bind to kernel 1 '_Z17executeFirstLayerPfS_S_'
GPGPU-Sim uArch: core:  3, cta: 0 initialized @(1,0)
GPGPU-Sim uArch: Shader 4 bind to kernel 1 '_Z17executeFirstLayerPfS_S_'
GPGPU-Sim uArch: core:  4, cta: 0 initialized @(1,0)
GPGPU-Sim uArch: Shader 5 bind to kernel 1 '_Z17executeFirstLayerPfS_S_'
GPGPU-Sim uArch: core:  5, cta: 0 initialized @(1,0)
GPGPU-Sim uArch: Shader 6 bind to kernel 1 '_Z17executeFirstLayerPfS_S_'
GPGPU-Sim uArch: core:  6, cta: 0 initialized @(1,0)
GPGPU-Sim uArch: Shader 7 bind to kernel 1 '_Z17executeFirstLayerPfS_S_'
GPGPU-Sim uArch: core:  7, cta: 0 initialized @(1,0)
GPGPU-Sim uArch: Shader 8 bind to kernel 1 '_Z17executeFirstLayerPfS_S_'
GPGPU-Sim uArch: core:  8, cta: 0 initialized @(1,0)
GPGPU-Sim uArch: Shader 9 bind to kernel 1 '_Z17executeFirstLayerPfS_S_'
GPGPU-Sim uArch: core:  9, cta: 0 initialized @(1,0)
GPGPU-Sim uArch: Shader 10 bind to kernel 1 '_Z17executeFirstLayerPfS_S_'
GPGPU-Sim uArch: core: 10, cta: 0 initialized @(1,0)
GPGPU-Sim uArch: Shader 11 bind to kernel 1 '_Z17executeFirstLayerPfS_S_'
GPGPU-Sim uArch: core: 11, cta: 0 initialized @(1,0)
GPGPU-Sim uArch: Shader 12 bind to kernel 1 '_Z17executeFirstLayerPfS_S_'
GPGPU-Sim uArch: core: 12, cta: 0 initialized @(1,0)
GPGPU-Sim uArch: Shader 13 bind to kernel 1 '_Z17executeFirstLayerPfS_S_'
GPGPU-Sim uArch: core: 13, cta: 0 initialized @(1,0)
GPGPU-Sim uArch: Shader 14 bind to kernel 1 '_Z17executeFirstLayerPfS_S_'
GPGPU-Sim uArch: core: 14, cta: 0 initialized @(1,0)
GPGPU-Sim uArch: Shader 0 bind to kernel 1 '_Z17executeFirstLayerPfS_S_'
GPGPU-Sim uArch: core:  0, cta: 0 initialized @(1,0)
GPGPU-Sim uArch: core:  1, cta: 1 initialized @(2,0)
GPGPU-Sim uArch: core:  2, cta: 1 initialized @(2,0)
GPGPU-Sim uArch: core:  3, cta: 1 initialized @(2,0)
GPGPU-Sim uArch: core:  4, cta: 1 initialized @(2,0)
GPGPU-Sim uArch: core:  5, cta: 1 initialized @(2,0)
GPGPU-Sim uArch: core:  6, cta: 1 initialized @(2,0)
GPGPU-Sim uArch: core:  7, cta: 1 initialized @(2,0)
GPGPU-Sim uArch: core:  8, cta: 1 initialized @(2,0)
GPGPU-Sim uArch: core:  9, cta: 1 initialized @(2,0)
GPGPU-Sim uArch: core: 10, cta: 1 initialized @(2,0)
GPGPU-Sim uArch: core: 11, cta: 1 initialized @(2,0)
GPGPU-Sim uArch: core: 12, cta: 1 initialized @(2,0)
GPGPU-Sim uArch: core: 13, cta: 1 initialized @(2,0)
GPGPU-Sim uArch: core: 14, cta: 1 initialized @(2,0)
GPGPU-Sim uArch: core:  0, cta: 1 initialized @(2,0)
GPGPU-Sim uArch: core:  1, cta: 2 initialized @(3,0)
GPGPU-Sim uArch: core:  2, cta: 2 initialized @(3,0)
GPGPU-Sim uArch: core:  3, cta: 2 initialized @(3,0)
GPGPU-Sim uArch: core:  4, cta: 2 initialized @(3,0)
GPGPU-Sim uArch: core:  5, cta: 2 initialized @(3,0)
GPGPU-Sim uArch: core:  6, cta: 2 initialized @(3,0)
GPGPU-Sim uArch: core:  7, cta: 2 initialized @(3,0)
GPGPU-Sim uArch: core:  8, cta: 2 initialized @(3,0)
GPGPU-Sim uArch: core:  9, cta: 2 initialized @(3,0)
GPGPU-Sim uArch: core: 10, cta: 2 initialized @(3,0)
GPGPU-Sim uArch: core: 11, cta: 2 initialized @(3,0)
GPGPU-Sim uArch: core: 12, cta: 2 initialized @(3,0)
GPGPU-Sim uArch: core: 13, cta: 2 initialized @(3,0)
GPGPU-Sim uArch: core: 14, cta: 2 initialized @(3,0)
GPGPU-Sim uArch: core:  0, cta: 2 initialized @(3,0)
GPGPU-Sim uArch: core:  1, cta: 3 initialized @(4,0)
GPGPU-Sim uArch: core:  2, cta: 3 initialized @(4,0)
GPGPU-Sim uArch: core:  3, cta: 3 initialized @(4,0)
GPGPU-Sim uArch: core:  4, cta: 3 initialized @(4,0)
GPGPU-Sim uArch: core:  5, cta: 3 initialized @(4,0)
GPGPU-Sim uArch: core:  6, cta: 3 initialized @(4,0)
GPGPU-Sim uArch: core:  7, cta: 3 initialized @(4,0)
GPGPU-Sim uArch: core:  8, cta: 3 initialized @(4,0)
GPGPU-Sim uArch: core:  9, cta: 3 initialized @(4,0)
GPGPU-Sim uArch: core: 10, cta: 3 initialized @(4,0)
GPGPU-Sim uArch: core: 11, cta: 3 initialized @(4,0)
GPGPU-Sim uArch: core: 12, cta: 3 initialized @(4,0)
GPGPU-Sim uArch: core: 13, cta: 3 initialized @(4,0)
GPGPU-Sim uArch: core: 14, cta: 3 initialized @(4,0)
GPGPU-Sim uArch: core:  0, cta: 3 initialized @(4,0)
GPGPU-Sim uArch: core:  1, cta: 4 initialized @(5,0)
GPGPU-Sim uArch: core:  2, cta: 4 initialized @(5,0)
GPGPU-Sim uArch: core:  3, cta: 4 initialized @(5,0)
GPGPU-Sim uArch: core:  4, cta: 4 initialized @(5,0)
GPGPU-Sim uArch: core:  5, cta: 4 initialized @(5,0)
GPGPU-Sim uArch: core:  6, cta: 4 initialized @(5,0)
GPGPU-Sim uArch: core:  7, cta: 4 initialized @(5,0)
GPGPU-Sim uArch: core:  8, cta: 4 initialized @(5,0)
GPGPU-Sim uArch: core:  9, cta: 4 initialized @(5,0)
GPGPU-Sim uArch: core: 10, cta: 4 initialized @(5,0)
GPGPU-Sim uArch: core: 11, cta: 4 initialized @(5,0)
GPGPU-Sim uArch: core: 12, cta: 4 initialized @(5,0)
GPGPU-Sim uArch: core: 13, cta: 4 initialized @(5,0)
GPGPU-Sim uArch: core: 14, cta: 4 initialized @(5,0)
GPGPU-Sim uArch: core:  0, cta: 4 initialized @(5,0)
GPGPU-Sim uArch: core:  1, cta: 5 initialized @(6,0)
GPGPU-Sim uArch: core:  2, cta: 5 initialized @(6,0)
GPGPU-Sim uArch: core:  3, cta: 5 initialized @(6,0)
GPGPU-Sim uArch: core:  4, cta: 5 initialized @(6,0)
GPGPU-Sim uArch: core:  5, cta: 5 initialized @(6,0)
GPGPU-Sim uArch: core:  6, cta: 5 initialized @(6,0)
GPGPU-Sim uArch: core:  7, cta: 5 initialized @(6,0)
GPGPU-Sim uArch: core:  8, cta: 5 initialized @(6,0)
GPGPU-Sim uArch: core:  9, cta: 5 initialized @(6,0)
GPGPU-Sim uArch: core: 10, cta: 5 initialized @(6,0)
GPGPU-Sim uArch: core: 11, cta: 5 initialized @(6,0)
GPGPU-Sim uArch: core: 12, cta: 5 initialized @(6,0)
GPGPU-Sim uArch: core: 13, cta: 5 initialized @(6,0)
GPGPU-Sim uArch: core: 14, cta: 5 initialized @(6,0)
GPGPU-Sim uArch: core:  0, cta: 5 initialized @(6,0)
GPGPU-Sim uArch: core:  1, cta: 6 initialized @(7,0)
GPGPU-Sim uArch: core:  2, cta: 6 initialized @(7,0)
GPGPU-Sim uArch: core:  3, cta: 6 initialized @(7,0)
GPGPU-Sim uArch: core:  4, cta: 6 initialized @(7,0)
GPGPU-Sim uArch: core:  5, cta: 6 initialized @(7,0)
GPGPU-Sim uArch: core:  6, cta: 6 initialized @(7,0)
GPGPU-Sim uArch: core:  7, cta: 6 initialized @(7,0)
GPGPU-Sim uArch: core:  8, cta: 6 initialized @(7,0)
GPGPU-Sim uArch: core:  9, cta: 6 initialized @(7,0)
GPGPU-Sim uArch: core: 10, cta: 6 initialized @(7,0)
GPGPU-Sim uArch: core: 11, cta: 6 initialized @(7,0)
GPGPU-Sim uArch: core: 12, cta: 6 initialized @(7,0)
GPGPU-Sim uArch: core: 13, cta: 6 initialized @(7,0)
GPGPU-Sim uArch: core: 14, cta: 6 initialized @(7,0)
GPGPU-Sim uArch: core:  0, cta: 6 initialized @(7,0)
GPGPU-Sim uArch: core:  1, cta: 7 initialized @(8,0)
GPGPU-Sim uArch: core:  2, cta: 7 initialized @(8,0)
GPGPU-Sim uArch: core:  3, cta: 7 initialized @(8,0)
GPGPU-Sim uArch: core:  4, cta: 7 initialized @(8,0)
GPGPU-Sim uArch: core:  5, cta: 7 initialized @(8,0)
GPGPU-Sim uArch: core:  6, cta: 7 initialized @(8,0)
GPGPU-Sim uArch: core:  7, cta: 7 initialized @(8,0)
GPGPU-Sim uArch: core:  8, cta: 7 initialized @(8,0)
GPGPU-Sim uArch: core:  9, cta: 7 initialized @(8,0)
GPGPU-Sim uArch: core: 10, cta: 7 initialized @(8,0)
GPGPU-Sim uArch: core: 11, cta: 7 initialized @(8,0)
GPGPU-Sim uArch: core: 12, cta: 7 initialized @(8,0)
GPGPU-Sim uArch: core: 13, cta: 7 initialized @(8,0)
GPGPU-Sim uArch: core: 14, cta: 7 initialized @(8,0)
GPGPU-Sim uArch: core:  0, cta: 7 initialized @(8,0)
GPGPU-Sim uArch: cycles simulated: 500  inst.: 70258 (ipc=140.5) sim_rate=17564 (inst/sec) elapsed = 0:0:00:04 / Tue Mar 22 07:38:37 2016
GPGPU-Sim PTX: 100000 instructions simulated : ctaid=(1,15,0) tid=(6,12,0)
GPGPU-Sim PTX: 200000 instructions simulated : ctaid=(2,19,0) tid=(12,0,0)
GPGPU-Sim uArch: cycles simulated: 1000  inst.: 263691 (ipc=263.7) sim_rate=37670 (inst/sec) elapsed = 0:0:00:07 / Tue Mar 22 07:38:40 2016
GPGPU-Sim PTX: 300000 instructions simulated : ctaid=(5,12,0) tid=(0,10,0)
GPGPU-Sim PTX: 400000 instructions simulated : ctaid=(0,3,0) tid=(4,6,0)
GPGPU-Sim PTX: 500000 instructions simulated : ctaid=(2,11,0) tid=(4,10,0)
GPGPU-Sim uArch: cycles simulated: 1500  inst.: 507759 (ipc=338.5) sim_rate=63469 (inst/sec) elapsed = 0:0:00:08 / Tue Mar 22 07:38:41 2016
GPGPU-Sim uArch: cycles simulated: 2500  inst.: 551127 (ipc=220.5) sim_rate=61236 (inst/sec) elapsed = 0:0:00:09 / Tue Mar 22 07:38:42 2016
GPGPU-Sim PTX: 600000 instructions simulated : ctaid=(0,12,0) tid=(0,1,0)
GPGPU-Sim uArch: cycles simulated: 3500  inst.: 675498 (ipc=193.0) sim_rate=67549 (inst/sec) elapsed = 0:0:00:10 / Tue Mar 22 07:38:43 2016
GPGPU-Sim PTX: 700000 instructions simulated : ctaid=(1,0,0) tid=(10,11,0)
GPGPU-Sim PTX: 800000 instructions simulated : ctaid=(0,10,0) tid=(1,1,0)
GPGPU-Sim uArch: cycles simulated: 4500  inst.: 834648 (ipc=185.5) sim_rate=75877 (inst/sec) elapsed = 0:0:00:11 / Tue Mar 22 07:38:44 2016
GPGPU-Sim PTX: 900000 instructions simulated : ctaid=(4,9,0) tid=(5,10,0)
GPGPU-Sim PTX: 1000000 instructions simulated : ctaid=(1,3,0) tid=(6,1,0)
GPGPU-Sim uArch: cycles simulated: 5500  inst.: 1033791 (ipc=188.0) sim_rate=86149 (inst/sec) elapsed = 0:0:00:12 / Tue Mar 22 07:38:45 2016
GPGPU-Sim PTX: 1100000 instructions simulated : ctaid=(5,15,0) tid=(2,5,0)
GPGPU-Sim PTX: 1200000 instructions simulated : ctaid=(5,12,0) tid=(6,10,0)
GPGPU-Sim uArch: cycles simulated: 6500  inst.: 1275134 (ipc=196.2) sim_rate=98087 (inst/sec) elapsed = 0:0:00:13 / Tue Mar 22 07:38:46 2016
GPGPU-Sim PTX: 1300000 instructions simulated : ctaid=(3,19,0) tid=(0,11,0)
GPGPU-Sim PTX: 1400000 instructions simulated : ctaid=(1,19,0) tid=(1,1,0)
GPGPU-Sim uArch: cycles simulated: 7500  inst.: 1484950 (ipc=198.0) sim_rate=106067 (inst/sec) elapsed = 0:0:00:14 / Tue Mar 22 07:38:47 2016
GPGPU-Sim PTX: 1500000 instructions simulated : ctaid=(4,6,0) tid=(0,7,0)
GPGPU-Sim PTX: 1600000 instructions simulated : ctaid=(5,6,0) tid=(0,5,0)
GPGPU-Sim uArch: cycles simulated: 8500  inst.: 1677729 (ipc=197.4) sim_rate=111848 (inst/sec) elapsed = 0:0:00:15 / Tue Mar 22 07:38:48 2016
GPGPU-Sim PTX: 1700000 instructions simulated : ctaid=(3,11,0) tid=(12,11,0)
GPGPU-Sim PTX: 1800000 instructions simulated : ctaid=(1,17,0) tid=(12,9,0)
GPGPU-Sim PTX: 1900000 instructions simulated : ctaid=(4,4,0) tid=(1,5,0)
GPGPU-Sim uArch: cycles simulated: 9500  inst.: 1900360 (ipc=200.0) sim_rate=118772 (inst/sec) elapsed = 0:0:00:16 / Tue Mar 22 07:38:49 2016
GPGPU-Sim PTX: 2000000 instructions simulated : ctaid=(4,9,0) tid=(2,1,0)
GPGPU-Sim PTX: 2100000 instructions simulated : ctaid=(1,4,0) tid=(2,7,0)
GPGPU-Sim uArch: cycles simulated: 10500  inst.: 2113952 (ipc=201.3) sim_rate=124350 (inst/sec) elapsed = 0:0:00:17 / Tue Mar 22 07:38:50 2016
GPGPU-Sim PTX: 2200000 instructions simulated : ctaid=(4,2,0) tid=(11,10,0)
GPGPU-Sim PTX: 2300000 instructions simulated : ctaid=(4,7,0) tid=(8,10,0)
GPGPU-Sim uArch: cycles simulated: 11500  inst.: 2321305 (ipc=201.9) sim_rate=128961 (inst/sec) elapsed = 0:0:00:18 / Tue Mar 22 07:38:51 2016
GPGPU-Sim PTX: 2400000 instructions simulated : ctaid=(0,5,0) tid=(8,5,0)
GPGPU-Sim PTX: 2500000 instructions simulated : ctaid=(3,2,0) tid=(9,5,0)
GPGPU-Sim uArch: cycles simulated: 12500  inst.: 2523357 (ipc=201.9) sim_rate=132808 (inst/sec) elapsed = 0:0:00:19 / Tue Mar 22 07:38:52 2016
GPGPU-Sim PTX: 2600000 instructions simulated : ctaid=(1,10,0) tid=(1,6,0)
GPGPU-Sim PTX: 2700000 instructions simulated : ctaid=(2,6,0) tid=(1,0,0)
GPGPU-Sim uArch: cycles simulated: 13500  inst.: 2715740 (ipc=201.2) sim_rate=135787 (inst/sec) elapsed = 0:0:00:20 / Tue Mar 22 07:38:53 2016
GPGPU-Sim PTX: 2800000 instructions simulated : ctaid=(1,2,0) tid=(2,7,0)
GPGPU-Sim uArch: cycles simulated: 14000  inst.: 2834043 (ipc=202.4) sim_rate=134954 (inst/sec) elapsed = 0:0:00:21 / Tue Mar 22 07:38:54 2016
GPGPU-Sim PTX: 2900000 instructions simulated : ctaid=(0,8,0) tid=(1,6,0)
GPGPU-Sim PTX: 3000000 instructions simulated : ctaid=(1,10,0) tid=(12,5,0)
GPGPU-Sim uArch: cycles simulated: 15000  inst.: 3031737 (ipc=202.1) sim_rate=137806 (inst/sec) elapsed = 0:0:00:22 / Tue Mar 22 07:38:55 2016
GPGPU-Sim PTX: 3100000 instructions simulated : ctaid=(3,10,0) tid=(4,11,0)
GPGPU-Sim PTX: 3200000 instructions simulated : ctaid=(5,12,0) tid=(1,12,0)
GPGPU-Sim uArch: cycles simulated: 16000  inst.: 3255273 (ipc=203.5) sim_rate=141533 (inst/sec) elapsed = 0:0:00:23 / Tue Mar 22 07:38:56 2016
GPGPU-Sim PTX: 3300000 instructions simulated : ctaid=(3,7,0) tid=(5,2,0)
GPGPU-Sim PTX: 3400000 instructions simulated : ctaid=(1,13,0) tid=(0,8,0)
GPGPU-Sim PTX: 3500000 instructions simulated : ctaid=(2,14,0) tid=(1,1,0)
GPGPU-Sim uArch: cycles simulated: 17500  inst.: 3581895 (ipc=204.7) sim_rate=149245 (inst/sec) elapsed = 0:0:00:24 / Tue Mar 22 07:38:57 2016
GPGPU-Sim PTX: 3600000 instructions simulated : ctaid=(3,4,0) tid=(2,6,0)
GPGPU-Sim PTX: 3700000 instructions simulated : ctaid=(2,17,0) tid=(5,10,0)
GPGPU-Sim PTX: 3800000 instructions simulated : ctaid=(2,0,0) tid=(6,6,0)
GPGPU-Sim uArch: cycles simulated: 18500  inst.: 3799026 (ipc=205.4) sim_rate=151961 (inst/sec) elapsed = 0:0:00:25 / Tue Mar 22 07:38:58 2016
GPGPU-Sim PTX: 3900000 instructions simulated : ctaid=(1,13,0) tid=(11,2,0)
GPGPU-Sim PTX: 4000000 instructions simulated : ctaid=(4,5,0) tid=(0,11,0)
GPGPU-Sim uArch: cycles simulated: 19500  inst.: 4017834 (ipc=206.0) sim_rate=154532 (inst/sec) elapsed = 0:0:00:26 / Tue Mar 22 07:38:59 2016
GPGPU-Sim PTX: 4100000 instructions simulated : ctaid=(0,3,0) tid=(2,5,0)
GPGPU-Sim uArch: cycles simulated: 20000  inst.: 4133007 (ipc=206.7) sim_rate=153074 (inst/sec) elapsed = 0:0:00:27 / Tue Mar 22 07:39:00 2016
GPGPU-Sim PTX: 4200000 instructions simulated : ctaid=(1,6,0) tid=(12,6,0)
GPGPU-Sim PTX: 4300000 instructions simulated : ctaid=(0,8,0) tid=(3,1,0)
GPGPU-Sim uArch: cycles simulated: 21000  inst.: 4364414 (ipc=207.8) sim_rate=155871 (inst/sec) elapsed = 0:0:00:28 / Tue Mar 22 07:39:01 2016
GPGPU-Sim PTX: 4400000 instructions simulated : ctaid=(1,5,0) tid=(8,6,0)
GPGPU-Sim PTX: 4500000 instructions simulated : ctaid=(4,0,0) tid=(10,6,0)
GPGPU-Sim PTX: 4600000 instructions simulated : ctaid=(0,4,0) tid=(5,1,0)
GPGPU-Sim uArch: cycles simulated: 22000  inst.: 4632099 (ipc=210.5) sim_rate=159727 (inst/sec) elapsed = 0:0:00:29 / Tue Mar 22 07:39:02 2016
GPGPU-Sim PTX: 4700000 instructions simulated : ctaid=(1,12,0) tid=(4,2,0)
GPGPU-Sim PTX: 4800000 instructions simulated : ctaid=(4,17,0) tid=(0,6,0)
GPGPU-Sim PTX: 4900000 instructions simulated : ctaid=(1,5,0) tid=(3,6,0)
GPGPU-Sim uArch: cycles simulated: 23000  inst.: 4918349 (ipc=213.8) sim_rate=163944 (inst/sec) elapsed = 0:0:00:30 / Tue Mar 22 07:39:03 2016
GPGPU-Sim PTX: 5000000 instructions simulated : ctaid=(2,1,0) tid=(9,5,0)
GPGPU-Sim PTX: 5100000 instructions simulated : ctaid=(4,17,0) tid=(11,7,0)
GPGPU-Sim PTX: 5200000 instructions simulated : ctaid=(5,10,0) tid=(4,5,0)
GPGPU-Sim uArch: cycles simulated: 24000  inst.: 5223316 (ipc=217.6) sim_rate=168494 (inst/sec) elapsed = 0:0:00:31 / Tue Mar 22 07:39:04 2016
GPGPU-Sim PTX: 5300000 instructions simulated : ctaid=(5,13,0) tid=(5,12,0)
GPGPU-Sim PTX: 5400000 instructions simulated : ctaid=(4,17,0) tid=(0,3,0)
GPGPU-Sim uArch: cycles simulated: 24500  inst.: 5384001 (ipc=219.8) sim_rate=168250 (inst/sec) elapsed = 0:0:00:32 / Tue Mar 22 07:39:05 2016
GPGPU-Sim PTX: 5500000 instructions simulated : ctaid=(5,6,0) tid=(0,12,0)
GPGPU-Sim PTX: 5600000 instructions simulated : ctaid=(4,0,0) tid=(8,7,0)
GPGPU-Sim PTX: 5700000 instructions simulated : ctaid=(4,10,0) tid=(1,4,0)
GPGPU-Sim uArch: cycles simulated: 25500  inst.: 5754698 (ipc=225.7) sim_rate=174384 (inst/sec) elapsed = 0:0:00:33 / Tue Mar 22 07:39:06 2016
GPGPU-Sim PTX: 5800000 instructions simulated : ctaid=(0,11,0) tid=(5,2,0)
GPGPU-Sim PTX: 5900000 instructions simulated : ctaid=(3,13,0) tid=(1,12,0)
GPGPU-Sim PTX: 6000000 instructions simulated : ctaid=(1,2,0) tid=(9,4,0)
GPGPU-Sim PTX: 6100000 instructions simulated : ctaid=(4,7,0) tid=(8,5,0)
GPGPU-Sim uArch: cycles simulated: 26500  inst.: 6160181 (ipc=232.5) sim_rate=181181 (inst/sec) elapsed = 0:0:00:34 / Tue Mar 22 07:39:07 2016
GPGPU-Sim PTX: 6200000 instructions simulated : ctaid=(0,14,0) tid=(5,12,0)
GPGPU-Sim PTX: 6300000 instructions simulated : ctaid=(4,2,0) tid=(8,11,0)
GPGPU-Sim PTX: 6400000 instructions simulated : ctaid=(2,5,0) tid=(2,4,0)
GPGPU-Sim PTX: 6500000 instructions simulated : ctaid=(5,14,0) tid=(8,9,0)
GPGPU-Sim PTX: 6600000 instructions simulated : ctaid=(0,16,0) tid=(2,8,0)
GPGPU-Sim uArch: cycles simulated: 27500  inst.: 6590659 (ipc=239.7) sim_rate=188304 (inst/sec) elapsed = 0:0:00:35 / Tue Mar 22 07:39:08 2016
GPGPU-Sim PTX: 6700000 instructions simulated : ctaid=(1,17,0) tid=(9,2,0)
GPGPU-Sim PTX: 6800000 instructions simulated : ctaid=(3,4,0) tid=(6,2,0)
GPGPU-Sim PTX: 6900000 instructions simulated : ctaid=(0,9,0) tid=(0,8,0)
GPGPU-Sim PTX: 7000000 instructions simulated : ctaid=(1,17,0) tid=(2,4,0)
GPGPU-Sim PTX: 7100000 instructions simulated : ctaid=(3,15,0) tid=(11,4,0)
GPGPU-Sim uArch: cycles simulated: 29000  inst.: 7142774 (ipc=246.3) sim_rate=198410 (inst/sec) elapsed = 0:0:00:36 / Tue Mar 22 07:39:09 2016
GPGPU-Sim PTX: 7200000 instructions simulated : ctaid=(5,15,0) tid=(1,9,0)
GPGPU-Sim PTX: 7300000 instructions simulated : ctaid=(1,0,0) tid=(7,3,0)
GPGPU-Sim PTX: 7400000 instructions simulated : ctaid=(0,18,0) tid=(7,4,0)
GPGPU-Sim PTX: 7500000 instructions simulated : ctaid=(3,3,0) tid=(5,12,0)
GPGPU-Sim PTX: 7600000 instructions simulated : ctaid=(5,0,0) tid=(8,3,0)
GPGPU-Sim uArch: cycles simulated: 30500  inst.: 7663925 (ipc=251.3) sim_rate=207133 (inst/sec) elapsed = 0:0:00:37 / Tue Mar 22 07:39:10 2016
GPGPU-Sim PTX: 7700000 instructions simulated : ctaid=(5,3,0) tid=(10,4,0)
GPGPU-Sim PTX: 7800000 instructions simulated : ctaid=(1,9,0) tid=(11,12,0)
GPGPU-Sim uArch: Shader 4 finished CTA #5 (30887,0), 7 CTAs running
GPGPU-Sim uArch: core:  4, cta: 5 initialized @(30888,0)
GPGPU-Sim uArch: Shader 4 finished CTA #1 (31124,0), 7 CTAs running
GPGPU-Sim uArch: core:  4, cta: 1 initialized @(31125,0)
GPGPU-Sim PTX: 7900000 instructions simulated : ctaid=(1,6,0) tid=(10,8,0)
GPGPU-Sim uArch: Shader 4 finished CTA #6 (31229,0), 7 CTAs running
GPGPU-Sim uArch: core:  4, cta: 6 initialized @(31230,0)
GPGPU-Sim uArch: Shader 4 finished CTA #3 (31376,0), 7 CTAs running
GPGPU-Sim uArch: core:  4, cta: 3 initialized @(31377,0)
GPGPU-Sim uArch: Shader 4 finished CTA #7 (31391,0), 7 CTAs running
GPGPU-Sim uArch: core:  4, cta: 7 initialized @(31392,0)
GPGPU-Sim uArch: Shader 6 finished CTA #5 (31396,0), 7 CTAs running
GPGPU-Sim uArch: core:  6, cta: 5 initialized @(31397,0)
GPGPU-Sim PTX: 8000000 instructions simulated : ctaid=(2,4,0) tid=(6,12,0)
GPGPU-Sim uArch: Shader 6 finished CTA #6 (31490,0), 7 CTAs running
GPGPU-Sim uArch: core:  6, cta: 6 initialized @(31491,0)
GPGPU-Sim uArch: cycles simulated: 31500  inst.: 7999874 (ipc=254.0) sim_rate=210523 (inst/sec) elapsed = 0:0:00:38 / Tue Mar 22 07:39:11 2016
GPGPU-Sim uArch: Shader 4 finished CTA #0 (31535,0), 7 CTAs running
GPGPU-Sim uArch: core:  4, cta: 0 initialized @(31536,0)
GPGPU-Sim uArch: Shader 6 finished CTA #7 (31538,0), 7 CTAs running
GPGPU-Sim uArch: core:  6, cta: 7 initialized @(31539,0)
GPGPU-Sim uArch: Shader 4 finished CTA #2 (31583,0), 7 CTAs running
GPGPU-Sim uArch: core:  4, cta: 2 initialized @(31584,0)
GPGPU-Sim PTX: 8100000 instructions simulated : ctaid=(1,10,0) tid=(10,4,0)
GPGPU-Sim uArch: Shader 6 finished CTA #3 (31773,0), 7 CTAs running
GPGPU-Sim uArch: core:  6, cta: 3 initialized @(31774,0)
GPGPU-Sim uArch: Shader 6 finished CTA #0 (31917,0), 7 CTAs running
GPGPU-Sim uArch: core:  6, cta: 0 initialized @(31918,0)
GPGPU-Sim uArch: Shader 4 finished CTA #4 (31918,0), 7 CTAs running
GPGPU-Sim uArch: core:  4, cta: 4 initialized @(31919,0)
GPGPU-Sim uArch: Shader 6 finished CTA #1 (31948,0), 7 CTAs running
GPGPU-Sim uArch: core:  6, cta: 1 initialized @(31949,0)
GPGPU-Sim PTX: 8200000 instructions simulated : ctaid=(3,20,0) tid=(9,0,0)
GPGPU-Sim uArch: Shader 2 finished CTA #6 (31965,0), 7 CTAs running
GPGPU-Sim uArch: core:  2, cta: 6 initialized @(31966,0)
GPGPU-Sim uArch: Shader 6 finished CTA #4 (32073,0), 7 CTAs running
GPGPU-Sim uArch: core:  6, cta: 4 initialized @(32074,0)
GPGPU-Sim uArch: Shader 5 finished CTA #5 (32083,0), 7 CTAs running
GPGPU-Sim uArch: core:  5, cta: 5 initialized @(32084,0)
GPGPU-Sim uArch: Shader 6 finished CTA #2 (32084,0), 7 CTAs running
GPGPU-Sim uArch: core:  6, cta: 2 initialized @(32085,0)
GPGPU-Sim uArch: Shader 5 finished CTA #0 (32174,0), 7 CTAs running
GPGPU-Sim uArch: core:  5, cta: 0 initialized @(32175,0)
GPGPU-Sim uArch: Shader 0 finished CTA #3 (32182,0), 7 CTAs running
GPGPU-Sim uArch: core:  0, cta: 3 initialized @(32183,0)
GPGPU-Sim uArch: Shader 5 finished CTA #7 (32191,0), 7 CTAs running
GPGPU-Sim uArch: core:  5, cta: 7 initialized @(32192,0)
GPGPU-Sim uArch: Shader 5 finished CTA #6 (32196,0), 7 CTAs running
GPGPU-Sim uArch: core:  5, cta: 6 initialized @(32197,0)
GPGPU-Sim PTX: 8300000 instructions simulated : ctaid=(4,18,0) tid=(7,12,0)
GPGPU-Sim uArch: Shader 5 finished CTA #1 (32207,0), 7 CTAs running
GPGPU-Sim uArch: core:  5, cta: 1 initialized @(32208,0)
GPGPU-Sim uArch: Shader 0 finished CTA #1 (32238,0), 7 CTAs running
GPGPU-Sim uArch: Shader 5 finished CTA #3 (32238,0), 7 CTAs running
GPGPU-Sim uArch: core:  0, cta: 1 initialized @(32239,0)
GPGPU-Sim uArch: core:  5, cta: 3 initialized @(32239,0)
GPGPU-Sim uArch: Shader 3 finished CTA #6 (32369,0), 7 CTAs running
GPGPU-Sim uArch: core:  3, cta: 6 initialized @(32370,0)
GPGPU-Sim uArch: Shader 1 finished CTA #6 (32375,0), 7 CTAs running
GPGPU-Sim uArch: core:  1, cta: 6 initialized @(32376,0)
GPGPU-Sim uArch: Shader 12 finished CTA #6 (32379,0), 7 CTAs running
GPGPU-Sim uArch: core: 12, cta: 6 initialized @(32380,0)
GPGPU-Sim uArch: Shader 13 finished CTA #6 (32381,0), 7 CTAs running
GPGPU-Sim uArch: core: 13, cta: 6 initialized @(32382,0)
GPGPU-Sim uArch: Shader 0 finished CTA #2 (32394,0), 7 CTAs running
GPGPU-Sim uArch: core:  0, cta: 2 initialized @(32395,0)
GPGPU-Sim uArch: Shader 14 finished CTA #4 (32420,0), 7 CTAs running
GPGPU-Sim uArch: core: 14, cta: 4 initialized @(32421,0)
GPGPU-Sim PTX: 8400000 instructions simulated : ctaid=(4,18,0) tid=(1,8,0)
GPGPU-Sim uArch: Shader 12 finished CTA #7 (32455,0), 7 CTAs running
GPGPU-Sim uArch: core: 12, cta: 7 initialized @(32456,0)
GPGPU-Sim uArch: Shader 0 finished CTA #5 (32463,0), 7 CTAs running
GPGPU-Sim uArch: core:  0, cta: 5 initialized @(32464,0)
GPGPU-Sim uArch: Shader 13 finished CTA #3 (32483,0), 7 CTAs running
GPGPU-Sim uArch: core: 13, cta: 3 initialized @(32484,0)
GPGPU-Sim uArch: cycles simulated: 32500  inst.: 8411376 (ipc=258.8) sim_rate=215676 (inst/sec) elapsed = 0:0:00:39 / Tue Mar 22 07:39:12 2016
GPGPU-Sim uArch: Shader 12 finished CTA #1 (32504,0), 7 CTAs running
GPGPU-Sim uArch: core: 12, cta: 1 initialized @(32505,0)
GPGPU-Sim uArch: Shader 5 finished CTA #2 (32509,0), 7 CTAs running
GPGPU-Sim uArch: core:  5, cta: 2 initialized @(32510,0)
GPGPU-Sim uArch: Shader 12 finished CTA #0 (32527,0), 7 CTAs running
GPGPU-Sim uArch: core: 12, cta: 0 initialized @(32528,0)
GPGPU-Sim uArch: Shader 0 finished CTA #6 (32529,0), 7 CTAs running
GPGPU-Sim uArch: core:  0, cta: 6 initialized @(32530,0)
GPGPU-Sim uArch: Shader 14 finished CTA #5 (32555,0), 7 CTAs running
GPGPU-Sim uArch: core: 14, cta: 5 initialized @(32556,0)
GPGPU-Sim uArch: Shader 14 finished CTA #6 (32562,0), 7 CTAs running
GPGPU-Sim uArch: core: 14, cta: 6 initialized @(32563,0)
GPGPU-Sim uArch: Shader 2 finished CTA #4 (32563,0), 7 CTAs running
GPGPU-Sim uArch: core:  2, cta: 4 initialized @(32564,0)
GPGPU-Sim uArch: Shader 11 finished CTA #5 (32566,0), 7 CTAs running
GPGPU-Sim uArch: core: 11, cta: 5 initialized @(32567,0)
GPGPU-Sim uArch: Shader 12 finished CTA #5 (32583,0), 7 CTAs running
GPGPU-Sim uArch: core: 12, cta: 5 initialized @(32584,0)
GPGPU-Sim PTX: 8500000 instructions simulated : ctaid=(3,26,0) tid=(11,1,0)
GPGPU-Sim uArch: Shader 0 finished CTA #4 (32601,0), 7 CTAs running
GPGPU-Sim uArch: core:  0, cta: 4 initialized @(32602,0)
GPGPU-Sim uArch: Shader 12 finished CTA #4 (32626,0), 7 CTAs running
GPGPU-Sim uArch: core: 12, cta: 4 initialized @(32627,0)
GPGPU-Sim uArch: Shader 11 finished CTA #1 (32627,0), 7 CTAs running
GPGPU-Sim uArch: core: 11, cta: 1 initialized @(32628,0)
GPGPU-Sim uArch: Shader 13 finished CTA #1 (32647,0), 7 CTAs running
GPGPU-Sim uArch: core: 13, cta: 1 initialized @(32648,0)
GPGPU-Sim uArch: Shader 13 finished CTA #0 (32663,0), 7 CTAs running
GPGPU-Sim uArch: core: 13, cta: 0 initialized @(32664,0)
GPGPU-Sim uArch: Shader 14 finished CTA #2 (32682,0), 7 CTAs running
GPGPU-Sim uArch: Shader 13 finished CTA #5 (32683,0), 7 CTAs running
GPGPU-Sim uArch: Shader 12 finished CTA #2 (32702,0), 7 CTAs running
GPGPU-Sim uArch: Shader 0 finished CTA #7 (32723,0), 7 CTAs running
GPGPU-Sim uArch: Shader 14 finished CTA #1 (32727,0), 6 CTAs running
GPGPU-Sim uArch: Shader 2 finished CTA #1 (32759,0), 7 CTAs running
GPGPU-Sim uArch: Shader 14 finished CTA #0 (32775,0), 5 CTAs running
GPGPU-Sim PTX: 8600000 instructions simulated : ctaid=(4,18,0) tid=(9,2,0)
GPGPU-Sim uArch: Shader 14 finished CTA #7 (32915,0), 4 CTAs running
GPGPU-Sim uArch: Shader 1 finished CTA #3 (32929,0), 7 CTAs running
GPGPU-Sim uArch: Shader 13 finished CTA #4 (32930,0), 6 CTAs running
GPGPU-Sim uArch: Shader 0 finished CTA #0 (32935,0), 6 CTAs running
GPGPU-Sim uArch: Shader 14 finished CTA #3 (32946,0), 3 CTAs running
GPGPU-Sim uArch: Shader 10 finished CTA #4 (32953,0), 7 CTAs running
GPGPU-Sim uArch: Shader 1 finished CTA #2 (32989,0), 6 CTAs running
GPGPU-Sim uArch: Shader 1 finished CTA #1 (32991,0), 5 CTAs running
GPGPU-Sim uArch: cycles simulated: 33000  inst.: 8651793 (ipc=262.2) sim_rate=216294 (inst/sec) elapsed = 0:0:00:40 / Tue Mar 22 07:39:13 2016
GPGPU-Sim uArch: Shader 11 finished CTA #0 (33002,0), 7 CTAs running
GPGPU-Sim uArch: Shader 2 finished CTA #7 (33015,0), 6 CTAs running
GPGPU-Sim PTX: 8700000 instructions simulated : ctaid=(1,24,0) tid=(4,6,0)
GPGPU-Sim uArch: Shader 2 finished CTA #3 (33041,0), 5 CTAs running
GPGPU-Sim uArch: Shader 5 finished CTA #4 (33042,0), 7 CTAs running
GPGPU-Sim uArch: Shader 13 finished CTA #2 (33061,0), 5 CTAs running
GPGPU-Sim uArch: Shader 10 finished CTA #5 (33076,0), 6 CTAs running
GPGPU-Sim uArch: Shader 10 finished CTA #2 (33080,0), 5 CTAs running
GPGPU-Sim uArch: Shader 10 finished CTA #1 (33083,0), 4 CTAs running
GPGPU-Sim uArch: Shader 10 finished CTA #3 (33103,0), 3 CTAs running
GPGPU-Sim uArch: Shader 9 finished CTA #3 (33125,0), 7 CTAs running
GPGPU-Sim uArch: Shader 2 finished CTA #5 (33129,0), 4 CTAs running
GPGPU-Sim uArch: Shader 13 finished CTA #7 (33133,0), 4 CTAs running
GPGPU-Sim uArch: Shader 2 finished CTA #2 (33145,0), 3 CTAs running
GPGPU-Sim uArch: Shader 2 finished CTA #0 (33191,0), 2 CTAs running
GPGPU-Sim uArch: Shader 1 finished CTA #4 (33207,0), 4 CTAs running
GPGPU-Sim uArch: Shader 9 finished CTA #6 (33223,0), 6 CTAs running
GPGPU-Sim uArch: Shader 1 finished CTA #7 (33228,0), 3 CTAs running
GPGPU-Sim uArch: Shader 3 finished CTA #4 (33229,0), 7 CTAs running
GPGPU-Sim uArch: Shader 10 finished CTA #6 (33245,0), 2 CTAs running
GPGPU-Sim uArch: Shader 11 finished CTA #3 (33246,0), 6 CTAs running
GPGPU-Sim uArch: Shader 1 finished CTA #0 (33263,0), 2 CTAs running
GPGPU-Sim PTX: 8800000 instructions simulated : ctaid=(4,24,0) tid=(10,8,0)
GPGPU-Sim uArch: Shader 9 finished CTA #1 (33267,0), 5 CTAs running
GPGPU-Sim uArch: Shader 11 finished CTA #2 (33268,0), 5 CTAs running
GPGPU-Sim uArch: Shader 10 finished CTA #7 (33299,0), 1 CTAs running
GPGPU-Sim uArch: Shader 3 finished CTA #1 (33303,0), 6 CTAs running
GPGPU-Sim uArch: Shader 1 finished CTA #5 (33310,0), 1 CTAs running
GPGPU-Sim uArch: Shader 10 finished CTA #0 (33367,0), 0 CTAs running
GPGPU-Sim uArch: Shader 10 empty (release kernel 1 '_Z17executeFirstLayerPfS_S_').
GPGPU-Sim uArch: Shader 3 finished CTA #7 (33373,0), 5 CTAs running
GPGPU-Sim uArch: Shader 8 finished CTA #1 (33379,0), 7 CTAs running
GPGPU-Sim uArch: Shader 11 finished CTA #7 (33392,0), 4 CTAs running
GPGPU-Sim uArch: Shader 11 finished CTA #4 (33394,0), 3 CTAs running
GPGPU-Sim uArch: Shader 3 finished CTA #0 (33395,0), 4 CTAs running
GPGPU-Sim uArch: Shader 11 finished CTA #6 (33395,0), 2 CTAs running
GPGPU-Sim PTX: 8900000 instructions simulated : ctaid=(3,27,0) tid=(0,10,0)
GPGPU-Sim uArch: Shader 8 finished CTA #6 (33467,0), 6 CTAs running
GPGPU-Sim uArch: Shader 3 finished CTA #3 (33473,0), 3 CTAs running
GPGPU-Sim uArch: Shader 12 finished CTA #3 (33481,0), 6 CTAs running
GPGPU-Sim uArch: Shader 7 finished CTA #6 (33482,0), 7 CTAs running
GPGPU-Sim uArch: Shader 9 finished CTA #7 (33502,0), 4 CTAs running
GPGPU-Sim uArch: Shader 7 finished CTA #7 (33539,0), 6 CTAs running
GPGPU-Sim uArch: Shader 9 finished CTA #0 (33566,0), 3 CTAs running
GPGPU-Sim uArch: Shader 3 finished CTA #5 (33578,0), 2 CTAs running
GPGPU-Sim uArch: Shader 8 finished CTA #3 (33588,0), 5 CTAs running
GPGPU-Sim uArch: Shader 9 finished CTA #2 (33604,0), 2 CTAs running
GPGPU-Sim uArch: Shader 7 finished CTA #0 (33614,0), 5 CTAs running
GPGPU-Sim uArch: Shader 7 finished CTA #3 (33632,0), 4 CTAs running
GPGPU-Sim uArch: Shader 7 finished CTA #4 (33654,0), 3 CTAs running
GPGPU-Sim uArch: Shader 9 finished CTA #5 (33654,0), 1 CTAs running
GPGPU-Sim PTX: 9000000 instructions simulated : ctaid=(3,25,0) tid=(7,1,0)
GPGPU-Sim uArch: Shader 7 finished CTA #5 (33675,0), 2 CTAs running
GPGPU-Sim uArch: Shader 3 finished CTA #2 (33693,0), 1 CTAs running
GPGPU-Sim uArch: Shader 7 finished CTA #2 (33704,0), 1 CTAs running
GPGPU-Sim uArch: Shader 9 finished CTA #4 (33713,0), 0 CTAs running
GPGPU-Sim uArch: Shader 9 empty (release kernel 1 '_Z17executeFirstLayerPfS_S_').
GPGPU-Sim uArch: Shader 8 finished CTA #4 (33737,0), 4 CTAs running
GPGPU-Sim uArch: Shader 7 finished CTA #1 (33768,0), 0 CTAs running
GPGPU-Sim uArch: Shader 7 empty (release kernel 1 '_Z17executeFirstLayerPfS_S_').
GPGPU-Sim uArch: Shader 8 finished CTA #5 (33847,0), 3 CTAs running
GPGPU-Sim uArch: Shader 8 finished CTA #7 (33859,0), 2 CTAs running
GPGPU-Sim PTX: 9100000 instructions simulated : ctaid=(2,22,0) tid=(5,9,0)
GPGPU-Sim uArch: Shader 8 finished CTA #2 (33905,0), 1 CTAs running
GPGPU-Sim uArch: Shader 8 finished CTA #0 (33924,0), 0 CTAs running
GPGPU-Sim uArch: Shader 8 empty (release kernel 1 '_Z17executeFirstLayerPfS_S_').
GPGPU-Sim uArch: cycles simulated: 34000  inst.: 9132165 (ipc=268.6) sim_rate=222735 (inst/sec) elapsed = 0:0:00:41 / Tue Mar 22 07:39:14 2016
GPGPU-Sim PTX: 9200000 instructions simulated : ctaid=(2,24,0) tid=(11,2,0)
GPGPU-Sim PTX: 9300000 instructions simulated : ctaid=(3,26,0) tid=(8,10,0)
GPGPU-Sim PTX: 9400000 instructions simulated : ctaid=(1,24,0) tid=(4,7,0)
GPGPU-Sim uArch: cycles simulated: 34500  inst.: 9375426 (ipc=271.8) sim_rate=223224 (inst/sec) elapsed = 0:0:00:42 / Tue Mar 22 07:39:15 2016
GPGPU-Sim PTX: 9500000 instructions simulated : ctaid=(0,21,0) tid=(9,2,0)
GPGPU-Sim PTX: 9600000 instructions simulated : ctaid=(3,27,0) tid=(0,3,0)
GPGPU-Sim PTX: 9700000 instructions simulated : ctaid=(0,23,0) tid=(8,12,0)
GPGPU-Sim PTX: 9800000 instructions simulated : ctaid=(5,26,0) tid=(7,7,0)
GPGPU-Sim uArch: cycles simulated: 35500  inst.: 9852183 (ipc=277.5) sim_rate=229120 (inst/sec) elapsed = 0:0:00:43 / Tue Mar 22 07:39:16 2016
GPGPU-Sim PTX: 9900000 instructions simulated : ctaid=(2,21,0) tid=(9,2,0)
GPGPU-Sim PTX: 10000000 instructions simulated : ctaid=(5,20,0) tid=(8,6,0)
GPGPU-Sim PTX: 10100000 instructions simulated : ctaid=(4,25,0) tid=(1,9,0)
GPGPU-Sim PTX: 10200000 instructions simulated : ctaid=(1,20,0) tid=(3,2,0)
GPGPU-Sim uArch: Shader 3 finished CTA #6 (36276,0), 0 CTAs running
GPGPU-Sim uArch: Shader 3 empty (release kernel 1 '_Z17executeFirstLayerPfS_S_').
GPGPU-Sim uArch: Shader 2 finished CTA #6 (36322,0), 1 CTAs running
GPGPU-Sim uArch: Shader 1 finished CTA #6 (36438,0), 0 CTAs running
GPGPU-Sim uArch: Shader 1 empty (release kernel 1 '_Z17executeFirstLayerPfS_S_').
GPGPU-Sim uArch: cycles simulated: 36500  inst.: 10257842 (ipc=281.0) sim_rate=233132 (inst/sec) elapsed = 0:0:00:44 / Tue Mar 22 07:39:17 2016
GPGPU-Sim PTX: 10300000 instructions simulated : ctaid=(4,23,0) tid=(7,6,0)
GPGPU-Sim PTX: 10400000 instructions simulated : ctaid=(2,26,0) tid=(11,11,0)
GPGPU-Sim uArch: Shader 2 finished CTA #4 (36927,0), 0 CTAs running
GPGPU-Sim uArch: Shader 2 empty (release kernel 1 '_Z17executeFirstLayerPfS_S_').
GPGPU-Sim uArch: Shader 11 finished CTA #1 (37033,0), 1 CTAs running
GPGPU-Sim uArch: Shader 11 finished CTA #5 (37063,0), 0 CTAs running
GPGPU-Sim uArch: Shader 11 empty (release kernel 1 '_Z17executeFirstLayerPfS_S_').
GPGPU-Sim PTX: 10500000 instructions simulated : ctaid=(0,27,0) tid=(10,11,0)
GPGPU-Sim PTX: 10600000 instructions simulated : ctaid=(0,26,0) tid=(7,2,0)
GPGPU-Sim uArch: Shader 14 finished CTA #4 (37761,0), 2 CTAs running
GPGPU-Sim PTX: 10700000 instructions simulated : ctaid=(5,27,0) tid=(9,5,0)
GPGPU-Sim uArch: Shader 14 finished CTA #5 (37785,0), 1 CTAs running
GPGPU-Sim uArch: Shader 14 finished CTA #6 (37803,0), 0 CTAs running
GPGPU-Sim uArch: Shader 14 empty (release kernel 1 '_Z17executeFirstLayerPfS_S_').
GPGPU-Sim uArch: cycles simulated: 38000  inst.: 10729493 (ipc=282.4) sim_rate=238433 (inst/sec) elapsed = 0:0:00:45 / Tue Mar 22 07:39:18 2016
GPGPU-Sim PTX: 10800000 instructions simulated : ctaid=(4,25,0) tid=(10,0,0)
GPGPU-Sim PTX: 10900000 instructions simulated : ctaid=(1,22,0) tid=(5,6,0)
GPGPU-Sim PTX: 11000000 instructions simulated : ctaid=(3,21,0) tid=(3,3,0)
GPGPU-Sim uArch: Shader 13 finished CTA #3 (39055,0), 3 CTAs running
GPGPU-Sim uArch: Shader 13 finished CTA #6 (39081,0), 2 CTAs running
GPGPU-Sim uArch: Shader 13 finished CTA #0 (39219,0), 1 CTAs running
GPGPU-Sim PTX: 11100000 instructions simulated : ctaid=(1,23,0) tid=(2,2,0)
GPGPU-Sim uArch: Shader 13 finished CTA #1 (39266,0), 0 CTAs running
GPGPU-Sim uArch: Shader 13 empty (release kernel 1 '_Z17executeFirstLayerPfS_S_').
GPGPU-Sim uArch: cycles simulated: 39500  inst.: 11127258 (ipc=281.7) sim_rate=241896 (inst/sec) elapsed = 0:0:00:46 / Tue Mar 22 07:39:19 2016
GPGPU-Sim PTX: 11200000 instructions simulated : ctaid=(1,27,0) tid=(9,3,0)
GPGPU-Sim PTX: 11300000 instructions simulated : ctaid=(2,21,0) tid=(10,8,0)
GPGPU-Sim PTX: 11400000 instructions simulated : ctaid=(5,24,0) tid=(3,7,0)
GPGPU-Sim PTX: 11500000 instructions simulated : ctaid=(0,27,0) tid=(11,4,0)
GPGPU-Sim uArch: cycles simulated: 41500  inst.: 11538340 (ipc=278.0) sim_rate=245496 (inst/sec) elapsed = 0:0:00:47 / Tue Mar 22 07:39:20 2016
GPGPU-Sim uArch: Shader 0 finished CTA #3 (41534,0), 5 CTAs running
GPGPU-Sim uArch: Shader 0 finished CTA #4 (41641,0), 4 CTAs running
GPGPU-Sim uArch: Shader 0 finished CTA #1 (41652,0), 3 CTAs running
GPGPU-Sim PTX: 11600000 instructions simulated : ctaid=(3,22,0) tid=(11,8,0)
GPGPU-Sim uArch: Shader 12 finished CTA #7 (41838,0), 5 CTAs running
GPGPU-Sim uArch: Shader 0 finished CTA #2 (41840,0), 2 CTAs running
GPGPU-Sim uArch: Shader 12 finished CTA #6 (41929,0), 4 CTAs running
GPGPU-Sim uArch: Shader 0 finished CTA #6 (41935,0), 1 CTAs running
GPGPU-Sim uArch: Shader 12 finished CTA #1 (41942,0), 3 CTAs running
GPGPU-Sim uArch: Shader 12 finished CTA #0 (41948,0), 2 CTAs running
GPGPU-Sim uArch: Shader 12 finished CTA #5 (41962,0), 1 CTAs running
GPGPU-Sim uArch: Shader 0 finished CTA #5 (41996,0), 0 CTAs running
GPGPU-Sim uArch: Shader 0 empty (release kernel 1 '_Z17executeFirstLayerPfS_S_').
GPGPU-Sim uArch: Shader 12 finished CTA #4 (41999,0), 0 CTAs running
GPGPU-Sim uArch: Shader 12 empty (release kernel 1 '_Z17executeFirstLayerPfS_S_').
GPGPU-Sim PTX: 11700000 instructions simulated : ctaid=(4,23,0) tid=(9,2,0)
GPGPU-Sim uArch: Shader 5 finished CTA #7 (42700,0), 6 CTAs running
GPGPU-Sim uArch: Shader 5 finished CTA #6 (42726,0), 5 CTAs running
GPGPU-Sim uArch: Shader 5 finished CTA #0 (42774,0), 4 CTAs running
GPGPU-Sim uArch: Shader 5 finished CTA #5 (42790,0), 3 CTAs running
GPGPU-Sim uArch: Shader 5 finished CTA #1 (42844,0), 2 CTAs running
GPGPU-Sim uArch: Shader 4 finished CTA #5 (42883,0), 7 CTAs running
GPGPU-Sim uArch: Shader 4 finished CTA #1 (42919,0), 6 CTAs running
GPGPU-Sim uArch: Shader 5 finished CTA #3 (42987,0), 1 CTAs running
GPGPU-Sim uArch: Shader 4 finished CTA #6 (43008,0), 5 CTAs running
GPGPU-Sim uArch: Shader 5 finished CTA #2 (43044,0), 0 CTAs running
GPGPU-Sim uArch: Shader 5 empty (release kernel 1 '_Z17executeFirstLayerPfS_S_').
GPGPU-Sim uArch: Shader 4 finished CTA #3 (43155,0), 4 CTAs running
GPGPU-Sim uArch: Shader 4 finished CTA #7 (43210,0), 3 CTAs running
GPGPU-Sim uArch: Shader 6 finished CTA #5 (43224,0), 7 CTAs running
GPGPU-Sim uArch: Shader 4 finished CTA #2 (43228,0), 2 CTAs running
GPGPU-Sim uArch: Shader 4 finished CTA #0 (43286,0), 1 CTAs running
GPGPU-Sim uArch: Shader 4 finished CTA #4 (43295,0), 0 CTAs running
GPGPU-Sim uArch: Shader 4 empty (release kernel 1 '_Z17executeFirstLayerPfS_S_').
GPGPU-Sim uArch: Shader 6 finished CTA #0 (43530,0), 6 CTAs running
GPGPU-Sim uArch: Shader 6 finished CTA #3 (43566,0), 5 CTAs running
GPGPU-Sim uArch: Shader 6 finished CTA #6 (43610,0), 4 CTAs running
GPGPU-Sim uArch: Shader 6 finished CTA #7 (43630,0), 3 CTAs running
GPGPU-Sim uArch: Shader 6 finished CTA #1 (43642,0), 2 CTAs running
GPGPU-Sim uArch: Shader 6 finished CTA #2 (43670,0), 1 CTAs running
GPGPU-Sim uArch: Shader 6 finished CTA #4 (43688,0), 0 CTAs running
GPGPU-Sim uArch: Shader 6 empty (release kernel 1 '_Z17executeFirstLayerPfS_S_').
GPGPU-Sim uArch: GPU detected kernel '_Z17executeFirstLayerPfS_S_' finished on shader 6.

GPGPU-Sim PTX: cudaLaunch for 0x0x40275f (mode=performance simulation) on stream 0
GPGPU-Sim PTX: pushing kernel '_Z18executeSecondLayerPfS_S_' to stream 0, gridDim= (50,28,1) blockDim = (5,5,1) 
kernel_name = _Z17executeFirstLayerPfS_S_ 
kernel_launch_uid = 1 
gpu_sim_cycle = 43689
gpu_sim_insn = 11694074
gpu_ipc =     267.6663
gpu_tot_sim_cycle = 43689
gpu_tot_sim_insn = 11694074
gpu_tot_ipc =     267.6663
gpu_tot_issued_cta = 168
gpu_stall_dramfull = 90863
gpu_stall_icnt2sh    = 219692
gpu_total_sim_rate=248810

========= Core cache stats =========
L1I_cache:
	L1I_total_cache_accesses = 243880
	L1I_total_cache_misses = 1077
	L1I_total_cache_miss_rate = 0.0044
	L1I_total_cache_pending_hits = 0
	L1I_total_cache_reservation_fails = 4140
L1D_cache:
	L1D_cache_core[0]: Access = 11940, Miss = 2743, Miss_rate = 0.230, Pending_hits = 431, Reservation_fails = 19169
	L1D_cache_core[1]: Access = 7693, Miss = 2301, Miss_rate = 0.299, Pending_hits = 219, Reservation_fails = 19044
	L1D_cache_core[2]: Access = 8493, Miss = 2330, Miss_rate = 0.274, Pending_hits = 202, Reservation_fails = 18784
	L1D_cache_core[3]: Access = 7695, Miss = 2304, Miss_rate = 0.299, Pending_hits = 232, Reservation_fails = 19373
	L1D_cache_core[4]: Access = 13710, Miss = 2379, Miss_rate = 0.174, Pending_hits = 296, Reservation_fails = 17592
	L1D_cache_core[5]: Access = 12780, Miss = 2464, Miss_rate = 0.193, Pending_hits = 336, Reservation_fails = 18496
	L1D_cache_core[6]: Access = 13655, Miss = 2316, Miss_rate = 0.170, Pending_hits = 312, Reservation_fails = 17930
	L1D_cache_core[7]: Access = 6807, Miss = 2324, Miss_rate = 0.341, Pending_hits = 422, Reservation_fails = 20008
	L1D_cache_core[8]: Access = 6812, Miss = 2354, Miss_rate = 0.346, Pending_hits = 341, Reservation_fails = 20268
	L1D_cache_core[9]: Access = 6812, Miss = 2385, Miss_rate = 0.350, Pending_hits = 355, Reservation_fails = 20075
	L1D_cache_core[10]: Access = 6794, Miss = 2267, Miss_rate = 0.334, Pending_hits = 325, Reservation_fails = 19574
	L1D_cache_core[11]: Access = 8486, Miss = 2269, Miss_rate = 0.267, Pending_hits = 366, Reservation_fails = 19421
	L1D_cache_core[12]: Access = 11919, Miss = 2357, Miss_rate = 0.198, Pending_hits = 371, Reservation_fails = 19174
	L1D_cache_core[13]: Access = 10265, Miss = 2430, Miss_rate = 0.237, Pending_hits = 371, Reservation_fails = 19420
	L1D_cache_core[14]: Access = 9341, Miss = 2453, Miss_rate = 0.263, Pending_hits = 418, Reservation_fails = 19279
	L1D_total_cache_accesses = 143202
	L1D_total_cache_misses = 35676
	L1D_total_cache_miss_rate = 0.2491
	L1D_total_cache_pending_hits = 4997
	L1D_total_cache_reservation_fails = 287607
	L1D_cache_data_port_util = 0.179
	L1D_cache_fill_port_util = 0.059
L1C_cache:
	L1C_total_cache_accesses = 28224
	L1C_total_cache_misses = 978
	L1C_total_cache_miss_rate = 0.0347
	L1C_total_cache_pending_hits = 0
	L1C_total_cache_reservation_fails = 5147
L1T_cache:
	L1T_total_cache_accesses = 0
	L1T_total_cache_misses = 0
	L1T_total_cache_pending_hits = 0
	L1T_total_cache_reservation_fails = 0

Total_core_cache_stats:
	Total_core_cache_stats_breakdown[GLOBAL_ACC_R][HIT] = 102529
	Total_core_cache_stats_breakdown[GLOBAL_ACC_R][HIT_RESERVED] = 4997
	Total_core_cache_stats_breakdown[GLOBAL_ACC_R][MISS] = 33816
	Total_core_cache_stats_breakdown[GLOBAL_ACC_R][RESERVATION_FAIL] = 285629
	Total_core_cache_stats_breakdown[CONST_ACC_R][HIT] = 27246
	Total_core_cache_stats_breakdown[CONST_ACC_R][MISS] = 978
	Total_core_cache_stats_breakdown[CONST_ACC_R][RESERVATION_FAIL] = 5147
	Total_core_cache_stats_breakdown[GLOBAL_ACC_W][MISS] = 1860
	Total_core_cache_stats_breakdown[GLOBAL_ACC_W][RESERVATION_FAIL] = 1978
	Total_core_cache_stats_breakdown[INST_ACC_R][HIT] = 242803
	Total_core_cache_stats_breakdown[INST_ACC_R][MISS] = 1077
	Total_core_cache_stats_breakdown[INST_ACC_R][RESERVATION_FAIL] = 4140
Shader 0 warp_id issue ditsribution:
warp_id:
0, 1, 2, 3, 4, 5, 6, 7, 8, 9, 10, 11, 12, 13, 14, 15, 16, 17, 18, 19, 20, 21, 22, 23, 24, 25, 26, 27, 28, 29, 30, 31, 32, 33, 34, 35, 36, 37, 38, 39, 40, 41, 42, 43, 44, 45, 46, 47, 
distro:
437, 437, 437, 437, 437, 408, 874, 874, 874, 874, 874, 816, 874, 874, 874, 874, 874, 845, 845, 874, 874, 874, 874, 845, 874, 874, 874, 874, 874, 845, 874, 874, 874, 874, 874, 816, 845, 874, 874, 874, 874, 874, 437, 437, 437, 437, 437, 408, 
gpgpu_n_tot_thrd_icount = 13976224
gpgpu_n_tot_w_icount = 436757
gpgpu_n_stall_shd_mem = 383540
gpgpu_n_mem_read_local = 0
gpgpu_n_mem_write_local = 0
gpgpu_n_mem_read_global = 33816
gpgpu_n_mem_write_global = 1860
gpgpu_n_mem_texture = 0
gpgpu_n_mem_const = 45
gpgpu_n_load_insn  = 1447992
gpgpu_n_store_insn = 28392
gpgpu_n_shmem_insn = 0
gpgpu_n_tex_insn = 0
gpgpu_n_const_mem_insn = 709800
gpgpu_n_param_mem_insn = 85176
gpgpu_n_shmem_bkconflict = 0
gpgpu_n_cache_bkconflict = 0
gpgpu_n_intrawarp_mshr_merge = 0
gpgpu_n_cmem_portconflict = 5147
gpgpu_stall_shd_mem[c_mem][bk_conf] = 5147
gpgpu_stall_shd_mem[c_mem][mshr_rc] = 0
gpgpu_stall_shd_mem[c_mem][icnt_rc] = 0
gpgpu_stall_shd_mem[c_mem][data_port_stall] = 0
gpgpu_stall_shd_mem[t_mem][mshr_rc] = 0
gpgpu_stall_shd_mem[t_mem][icnt_rc] = 0
gpgpu_stall_shd_mem[t_mem][data_port_stall] = 0
gpgpu_stall_shd_mem[s_mem][bk_conf] = 0
gpgpu_stall_shd_mem[gl_mem][bk_conf] = 0
gpgpu_stall_shd_mem[gl_mem][coal_stall] = 378393
gpgpu_stall_shd_mem[gl_mem][data_port_stall] = 0
gpgpu_stall_shd_mem[g_mem_ld][mshr_rc] = 0
gpgpu_stall_shd_mem[g_mem_ld][icnt_rc] = 0
gpgpu_stall_shd_mem[g_mem_ld][wb_icnt_rc] = 0
gpgpu_stall_shd_mem[g_mem_ld][wb_rsrv_fail] = 0
gpgpu_stall_shd_mem[g_mem_st][mshr_rc] = 0
gpgpu_stall_shd_mem[g_mem_st][icnt_rc] = 0
gpgpu_stall_shd_mem[g_mem_st][wb_icnt_rc] = 0
gpgpu_stall_shd_mem[g_mem_st][wb_rsrv_fail] = 0
gpgpu_stall_shd_mem[l_mem_ld][mshr_rc] = 0
gpgpu_stall_shd_mem[l_mem_ld][icnt_rc] = 0
gpgpu_stall_shd_mem[l_mem_ld][wb_icnt_rc] = 0
gpgpu_stall_shd_mem[l_mem_ld][wb_rsrv_fail] = 0
gpgpu_stall_shd_mem[l_mem_st][mshr_rc] = 0
gpgpu_stall_shd_mem[l_mem_st][icnt_rc] = 0
gpgpu_stall_shd_mem[l_mem_ld][wb_icnt_rc] = 0
gpgpu_stall_shd_mem[l_mem_ld][wb_rsrv_fail] = 0
gpu_reg_bank_conflict_stalls = 0
Warp Occupancy Distribution:
Stall:574292	W0_Idle:93686	W0_Scoreboard:40429	W1:1617	W2:1706	W3:1602	W4:1573	W5:1910	W6:2148	W7:2029	W8:1839	W9:69677	W10:1230	W11:880	W12:982	W13:1064	W14:1298	W15:978	W16:903	W17:828	W18:938	W19:914	W20:652	W21:625	W22:705	W23:1064	W24:1036	W25:1062	W26:1332	W27:1100	W28:1093	W29:981	W30:664	W31:754	W32:331573
traffic_breakdown_coretomem[CONST_ACC_R] = 360 {8:45,}
traffic_breakdown_coretomem[GLOBAL_ACC_R] = 270528 {8:33816,}
traffic_breakdown_coretomem[GLOBAL_ACC_W] = 172800 {40:499,72:504,136:857,}
traffic_breakdown_coretomem[INST_ACC_R] = 840 {8:105,}
traffic_breakdown_memtocore[CONST_ACC_R] = 3240 {72:45,}
traffic_breakdown_memtocore[GLOBAL_ACC_R] = 4598976 {136:33816,}
traffic_breakdown_memtocore[GLOBAL_ACC_W] = 14880 {8:1860,}
traffic_breakdown_memtocore[INST_ACC_R] = 14280 {136:105,}
maxmrqlatency = 128 
maxdqlatency = 0 
maxmflatency = 1016 
averagemflatency = 338 
max_icnt2mem_latency = 686 
max_icnt2sh_latency = 43688 
mrq_lat_table:1401 	363 	144 	229 	241 	94 	74 	1 	0 	0 	0 	0 	0 	0 	0 	0 	0 	0 	0 	0 	0 	0 	0 	0 	0 	0 	0 	0 	0 	0 	0 	0 	
dq_lat_table:0 	0 	0 	0 	0 	0 	0 	0 	0 	0 	0 	0 	0 	0 	0 	0 	0 	0 	0 	0 	0 	0 	0 	0 	0 	0 	0 	0 	0 	0 	0 	0 	
mf_lat_table:0 	0 	0 	0 	0 	0 	0 	11800 	19269 	4652 	0 	0 	0 	0 	0 	0 	0 	0 	0 	0 	0 	0 	0 	0 	0 	0 	0 	0 	0 	0 	0 	0 	
icnt2mem_lat_table:0 	0 	0 	15197 	2727 	3106 	5345 	6609 	2773 	69 	0 	0 	0 	0 	0 	0 	0 	0 	0 	0 	0 	0 	0 	0 	
icnt2sh_lat_table:0 	0 	0 	3098 	19171 	11101 	490 	1 	0 	0 	0 	0 	0 	0 	1136 	724 	0 	0 	0 	0 	0 	0 	0 	0 	
mf_lat_pw_table:0 	0 	0 	0 	0 	0 	0 	35 	51 	0 	0 	0 	0 	0 	0 	0 	0 	0 	0 	0 	0 	0 	0 	0 	0 	0 	0 	0 	0 	0 	0 	0 	
maximum concurrent accesses to same row:
dram[0]:         1         0         0         0         0         0         0         0         0         0         0         0         0         0         0         0 
dram[1]:         1         0         0         0         0         0         0         0         0         0         0         0         0         0         0         0 
dram[2]:         0         0         0         0         0         0         0         0         0         0         0         0         0         0         0         0 
dram[3]:         0         0         0         0         0         0         0         0         0         0         0         0         0         0         0         0 
dram[4]:         0         0         0         0         0         0         0         0         0         0         0         0         0         0         0         0 
dram[5]:         0         0         0         0         0         0         0         0         0         0         0         0         0         0         0         0 
maximum service time to same row:
dram[0]:       376         0         0         0      1672      1632      1621      1641      1672       832     22282     21959     24115     22477         0         0 
dram[1]:      2116         0         0         0      1664      1628      1632      1637      1782     22993     22125     22566     23694     22471         0         0 
dram[2]:     19865         0         0         0      1656      1670      1628      1625      1729     22985     22594     21972     23488     23503         0         0 
dram[3]:     21425         0         0         0      1644      1668      1624      1616      1698     22649     23009     23807     23074     22781         0         0 
dram[4]:         0         0         0         0      1640      1641      1622      1615       837     22793     22132     23009     23119     24107         0         0 
dram[5]:         0         0         0         0      1635      1688      1638      1613       841     22006     21988     22675     23153     23753         0         0 
average row accesses per activate:
dram[0]:  1.000000      -nan      -nan      -nan 10.000000 10.000000 32.000000 32.000000 44.000000 43.000000 64.000000 64.000000 60.000000 60.000000      -nan      -nan 
dram[1]:  3.000000      -nan      -nan      -nan 10.000000 10.000000 32.000000 32.000000 44.000000 46.000000 64.000000 64.000000 65.000000 58.000000      -nan      -nan 
dram[2]:  2.000000      -nan      -nan      -nan 10.000000 12.000000 32.000000 32.000000 44.000000 46.000000 64.000000 65.000000 63.000000 57.000000      -nan      -nan 
dram[3]:  1.000000      -nan      -nan      -nan 10.000000 12.000000 32.000000 32.000000 44.000000 46.000000 64.000000 65.000000 62.000000 57.000000      -nan      -nan 
dram[4]:      -nan      -nan      -nan      -nan 10.000000 12.000000 32.000000 32.000000 44.000000 46.000000 65.000000 64.000000 62.000000 58.000000      -nan      -nan 
dram[5]:      -nan      -nan      -nan      -nan 10.000000 12.000000 32.000000 32.000000 44.000000 46.000000 64.000000 64.000000 60.000000 56.000000      -nan      -nan 
average row locality = 2547/66 = 38.590908
number of total memory accesses made:
dram[0]:         0         0         0         0         0         0         0         0         0         0         0         0         0         0         0         0 
dram[1]:         0         0         0         0         0         0         0         0         0         0         0         0         0         0         0         0 
dram[2]:         0         0         0         0         0         0         0         0         0         0         0         0         0         0         0         0 
dram[3]:         0         0         0         0         0         0         0         0         0         0         0         0         0         0         0         0 
dram[4]:         0         0         0         0         0         0         0         0         0         0         0         0         0         0         0         0 
dram[5]:         0         0         0         0         0         0         0         0         0         0         0         0         0         0         0         0 
total accesses: 0
min_bank_accesses = 0!
min_chip_accesses = 0!
number of total read accesses:
dram[0]:         3         0         0         0        10        10        32        32        32        31        32        32        30        30         0         0 
dram[1]:         3         0         0         0        10        10        32        32        32        32        32        32        30        28         0         0 
dram[2]:         2         0         0         0        10        12        32        32        32        32        32        32        30        28         0         0 
dram[3]:         1         0         0         0        10        12        32        32        32        32        32        32        30        28         0         0 
dram[4]:         0         0         0         0        10        12        32        32        32        32        32        32        30        28         0         0 
dram[5]:         0         0         0         0        10        12        32        32        32        32        32        32        30        28         0         0 
total reads: 1638
min_bank_accesses = 0!
chip skew: 274/272 = 1.01
number of total write accesses:
dram[0]:         0         0         0         0         0         0         0         0        12        12        32        32        30        30         0         0 
dram[1]:         0         0         0         0         0         0         0         0        12        14        32        32        35        30         0         0 
dram[2]:         0         0         0         0         0         0         0         0        12        14        32        33        33        29         0         0 
dram[3]:         0         0         0         0         0         0         0         0        12        14        32        33        32        29         0         0 
dram[4]:         0         0         0         0         0         0         0         0        12        14        33        32        32        30         0         0 
dram[5]:         0         0         0         0         0         0         0         0        12        14        32        32        30        28         0         0 
total reads: 909
min_bank_accesses = 0!
chip skew: 155/148 = 1.05
average mf latency per bank:
dram[0]:       1296    none      none      none       27776     19457     26740     15160      2576      1567       316       285       250       236    none      none  
dram[1]:       3191    none      none      none       26505     18475     24536     17177      2171       485       270       250       224       221    none      none  
dram[2]:          0    none      none      none       18468     14766     14620     15648      1538       596       267       234       226       237    none      none  
dram[3]:          0    none      none      none       12977     22991     18945     20389      1637       582       297       281       226       238    none      none  
dram[4]:     none      none      none      none       16890     38127     17970     40327      3194       714       286       394       234       256    none      none  
dram[5]:     none      none      none      none       15902     22413     17225     25260      2427       659       291       301       240       225    none      none  
maximum mf latency per bank:
dram[0]:        282         0         0         0       748       612       761       692       686       646       675       607       624       655         0         0
dram[1]:        486         0         0         0       782       665       808       641       692       625       550       536       660       602         0         0
dram[2]:          0         0         0         0       719       607       709       706       689       476       625       592       651       645         0         0
dram[3]:          0         0         0         0       717       758       718       738       656       570       683       683       418       792         0         0
dram[4]:          0         0         0         0       679       927       698       933       597       867       668      1016       653       828         0         0
dram[5]:          0         0         0         0       698       894       653       911       667       495       630       700       698       498         0         0

Number of Memory Banks Accessed per Memory Operation per Warp (from 0):
0	0	0	0	0	0	0	0	0	0	0	0	0	0	0	0	0	0	0	0	0	0	0	0	0	0	0	0	0	0	0	0	0	0	0	0	0	0	0	0	0	0	0	0	0	0	0	0	0	0	0	0	0	0	0	0	0	0	0	0	0	0	0	0	0	0	0	0	0	0	0	0	0	0	0	0	0	0	0	0	0	0	0	0	0	0	0	0	0	0	0	0	0	0	0	0	
Average # of Memory Banks Accessed per Memory Operation per Warp=-nan

position of mrq chosen
0	0	0	0	0	0	0	0	0	0	0	0	0	0	0	0	

average position of mrq chosen = -nan
Memory Partition 0: 
Cache L2_bank_000:
MSHR contents

Cache L2_bank_001:
MSHR contents

In Dram Latency Queue (total = 0): 
[...]
gpgpu_stall_shd_mem[l_mem_ld][wb_icnt_rc] = 0
gpgpu_stall_shd_mem[l_mem_ld][wb_rsrv_fail] = 0
gpgpu_stall_shd_mem[l_mem_st][mshr_rc] = 0
gpgpu_stall_shd_mem[l_mem_st][icnt_rc] = 0
gpgpu_stall_shd_mem[l_mem_ld][wb_icnt_rc] = 0
gpgpu_stall_shd_mem[l_mem_ld][wb_rsrv_fail] = 0
gpu_reg_bank_conflict_stalls = 0
Warp Occupancy Distribution:
Stall:1257445	W0_Idle:176466	W0_Scoreboard:1130085	W1:2597	W2:3581	W3:4068	W4:3798	W5:4566	W6:4331	W7:4364	W8:4137	W9:72206	W10:3671	W11:2610	W12:2826	W13:3133	W14:3223	W15:3869	W16:3792	W17:3561	W18:3978	W19:4192	W20:4403	W21:3990	W22:4431	W23:3704	W24:2421	W25:1078195	W26:1332	W27:1100	W28:1093	W29:981	W30:664	W31:754	W32:331573
traffic_breakdown_coretomem[CONST_ACC_R] = 600 {8:75,}
traffic_breakdown_coretomem[GLOBAL_ACC_R] = 435272 {8:54409,}
traffic_breakdown_coretomem[GLOBAL_ACC_W] = 394000 {40:1199,72:1204,136:1907,}
traffic_breakdown_coretomem[INST_ACC_R] = 1680 {8:210,}
traffic_breakdown_memtocore[CONST_ACC_R] = 5400 {72:75,}
traffic_breakdown_memtocore[GLOBAL_ACC_R] = 7399624 {136:54409,}
traffic_breakdown_memtocore[GLOBAL_ACC_W] = 34480 {8:4310,}
traffic_breakdown_memtocore[INST_ACC_R] = 28560 {136:210,}
maxmrqlatency = 128 
maxdqlatency = 0 
maxmflatency = 1016 
averagemflatency = 267 
max_icnt2mem_latency = 686 
max_icnt2sh_latency = 144642 
mrq_lat_table:3199 	766 	226 	426 	443 	124 	80 	1 	0 	0 	0 	0 	0 	0 	0 	0 	0 	0 	0 	0 	0 	0 	0 	0 	0 	0 	0 	0 	0 	0 	0 	0 	
dq_lat_table:0 	0 	0 	0 	0 	0 	0 	0 	0 	0 	0 	0 	0 	0 	0 	0 	0 	0 	0 	0 	0 	0 	0 	0 	0 	0 	0 	0 	0 	0 	0 	0 	
mf_lat_table:0 	0 	0 	0 	0 	0 	0 	33912 	20230 	4652 	0 	0 	0 	0 	0 	0 	0 	0 	0 	0 	0 	0 	0 	0 	0 	0 	0 	0 	0 	0 	0 	0 	
icnt2mem_lat_table:0 	0 	0 	37872 	3173 	3151 	5357 	6609 	2773 	69 	0 	0 	0 	0 	0 	0 	0 	0 	0 	0 	0 	0 	0 	0 	
icnt2sh_lat_table:0 	0 	0 	16448 	25668 	11865 	502 	1 	0 	0 	0 	0 	0 	0 	1136 	1129 	1670 	375 	0 	0 	0 	0 	0 	0 	
mf_lat_pw_table:0 	0 	0 	0 	0 	0 	0 	236 	52 	0 	0 	0 	0 	0 	0 	0 	0 	0 	0 	0 	0 	0 	0 	0 	0 	0 	0 	0 	0 	0 	0 	0 	
maximum concurrent accesses to same row:
dram[0]:         1         2         0         0        10        10         0         0         0         0         0         0         0         0         0         0 
dram[1]:         2         0         0         0        10        10         0         0         0         0         0         0         0         0         0         0 
dram[2]:         2         0         0         0        10        12         0         0         0         0         0         0         0         0         0         0 
dram[3]:         2         0         0         0        10        12         0         0         0         0         0         0         0         0         0         0 
dram[4]:         2         0         0         0        10        12         0         0         0         0         0         0         0         0         0         0 
dram[5]:         2         0         0         0        10        12         0         0         0         0         0         0         0         0         0         0 
maximum service time to same row:
dram[0]:     19662     11697     55496     55885     86350     88022      1621      1641      1672       832     22282     21959     24115     22477       287       285 
dram[1]:     20022     22357     55490     55882     86649     88653      1632      1637      1782     22993     22125     22566     23694     22471       285       287 
dram[2]:     19865     22762     55712     55982     86738     88905      1628      1625      1729     22985     22594     21972     23488     23503       287       285 
dram[3]:     21425     22846     55622     57025     88015     88801      1624      1616      1698     22649     23009     23807     23074     22781       285       287 
dram[4]:     19357     24460     56506     57019     87829     88797      1622      1615       837     22793     22132     23009     23119     24107       287       285 
dram[5]:     11682     25722     56607     57224     87791     88744      1638      1613       841     22006     21988     22675     23153     23753       285       294 
average row accesses per activate:
dram[0]: 18.250000 38.500000 71.000000 67.000000 21.000000 19.500000 32.000000 32.000000 44.000000 43.000000 64.000000 64.000000 62.000000 62.000000 46.000000 47.000000 
dram[1]: 25.000000 72.000000 73.000000 77.000000 22.000000 19.000000 32.000000 32.000000 44.000000 46.000000 64.000000 64.000000 67.000000 62.000000 48.000000 48.000000 
dram[2]: 38.000000 74.000000 73.000000 74.000000 20.000000 20.500000 32.000000 32.000000 44.000000 46.000000 64.000000 65.000000 65.000000 61.000000 46.000000 48.000000 
dram[3]: 37.500000 75.000000 75.000000 70.000000 21.500000 21.500000 32.000000 32.000000 44.000000 46.000000 64.000000 65.000000 64.000000 61.000000 46.000000 50.000000 
dram[4]: 36.500000 72.000000 71.000000 77.000000 19.500000 20.000000 32.000000 32.000000 44.000000 46.000000 65.000000 64.000000 64.000000 62.000000 46.000000 49.000000 
dram[5]: 36.000000 74.000000 75.000000 71.000000 20.000000 19.500000 32.000000 32.000000 44.000000 46.000000 64.000000 64.000000 62.000000 60.000000 48.000000 49.000000 
average row locality = 5265/118 = 44.618645
number of total memory accesses made:
dram[0]:         0         0         0         0         0         0         0         0         0         0         0         0         0         0         0         0 
dram[1]:         0         0         0         0         0         0         0         0         0         0         0         0         0         0         0         0 
dram[2]:         0         0         0         0         0         0         0         0         0         0         0         0         0         0         0         0 
dram[3]:         0         0         0         0         0         0         0         0         0         0         0         0         0         0         0         0 
dram[4]:         0         0         0         0         0         0         0         0         0         0         0         0         0         0         0         0 
dram[5]:         0         0         0         0         0         0         0         0         0         0         0         0         0         0         0         0 
total accesses: 0
min_bank_accesses = 0!
min_chip_accesses = 0!
number of total read accesses:
dram[0]:        35        34        32        32        24        22        32        32        32        31        32        32        32        32        32        32 
dram[1]:        36        32        32        32        24        22        32        32        32        32        32        32        32        32        32        32 
dram[2]:        34        32        32        32        24        24        32        32        32        32        32        32        32        32        32        32 
dram[3]:        34        32        32        32        24        24        32        32        32        32        32        32        32        32        32        32 
dram[4]:        34        32        32        32        22        24        32        32        32        32        32        32        32        32        32        32 
dram[5]:        34        32        32        32        22        24        32        32        32        32        32        32        32        32        32        32 
total reads: 2984
bank skew: 36/22 = 1.64
chip skew: 498/496 = 1.00
number of total write accesses:
dram[0]:        38        43        39        35        18        17         0         0        12        12        32        32        30        30        14        15 
dram[1]:        39        40        41        45        20        16         0         0        12        14        32        32        35        30        16        16 
dram[2]:        42        42        41        42        16        17         0         0        12        14        32        33        33        29        14        16 
dram[3]:        41        43        43        38        19        19         0         0        12        14        32        33        32        29        14        18 
dram[4]:        39        40        39        45        17        16         0         0        12        14        33        32        32        30        14        17 
dram[5]:        38        42        43        39        18        15         0         0        12        14        32        32        30        28        16        17 
total reads: 2281
min_bank_accesses = 0!
chip skew: 388/367 = 1.06
average mf latency per bank:
dram[0]:        254       193       202       213      6769      5134     26740     15160      3735      2450      1342      1338      1306      1266      2069      1835
dram[1]:        395       203       204       202      6178      5010     24536     17177      3152      1650      1326      1316      1203      1379      1767      1906
dram[2]:        197       204       200       204      4777      4461     14620     15648      2497      1880      1302      1250      1340      1386      1887      1925
dram[3]:        195       206       201       203      3168      6559     18945     20389      2582      1471      1344      1285      1252      1461      2060      1547
dram[4]:        199       206       209       199      4474     11579     17970     40327      4306      1671      1332      1379      1321      1430      1897      1766
dram[5]:        201       208       202       203      4115      7041     17225     25260      3344      1676      1378      1304      1280      1432      1924      1635
maximum mf latency per bank:
dram[0]:        288       270       273       270       748       612       761       692       686       646       675       607       624       655       336       331
dram[1]:        486       278       272       290       782       665       808       641       692       625       550       536       660       602       325       347
dram[2]:        270       273       281       287       719       607       709       706       689       476       625       592       651       645       330       316
dram[3]:        275       288       280       273       717       758       718       738       656       570       683       683       418       792       394       331
dram[4]:        285       277       290       291       679       927       698       933       597       867       668      1016       653       828       302       348
dram[5]:        281       277       270       278       698       894       653       911       667       495       630       700       698       498       343       374

Number of Memory Banks Accessed per Memory Operation per Warp (from 0):
0	0	0	0	0	0	0	0	0	0	0	0	0	0	0	0	0	0	0	0	0	0	0	0	0	0	0	0	0	0	0	0	0	0	0	0	0	0	0	0	0	0	0	0	0	0	0	0	0	0	0	0	0	0	0	0	0	0	0	0	0	0	0	0	0	0	0	0	0	0	0	0	0	0	0	0	0	0	0	0	0	0	0	0	0	0	0	0	0	0	0	0	0	0	0	0	
Average # of Memory Banks Accessed per Memory Operation per Warp=-nan

position of mrq chosen
0	0	0	0	0	0	0	0	0	0	0	0	0	0	0	0	

average position of mrq chosen = -nan
Memory Partition 0: 
Cache L2_bank_000:
MSHR contents

Cache L2_bank_001:
MSHR contents

In Dram Latency Queue (total = 0): 
DRAM[0]: 16 bks, busW=4 BL=8 CL=12, tRRD=2 tCCD=6, tRCD=12 tRAS=28 tRP=12 tRC=40
n_cmd=190927 n_nop=189364 n_act=22 n_pre=6 n_req=865 n_rd=996 n_write=539 bw_util=0.01608
n_activity=11471 dram_eff=0.2676
bk0: 70a 190213i bk1: 68a 190281i bk2: 64a 190338i bk3: 64a 190369i bk4: 48a 190573i bk5: 44a 190516i bk6: 64a 190717i bk7: 64a 190672i bk8: 64a 190571i bk9: 62a 190545i bk10: 64a 190218i bk11: 64a 190158i bk12: 64a 190299i bk13: 64a 190263i bk14: 64a 190538i bk15: 64a 190500i 
dram_util_bins: 0 0 0 0 0 0 0 0 0 0
dram_eff_bins: 0 0 0 0 0 0 0 0 0 0
mrqq: max=10 avg=0.0297444
Memory Partition 1: 
Cache L2_bank_002:
MSHR contents

Cache L2_bank_003:
MSHR contents

In Dram Latency Queue (total = 0): 
DRAM[1]: 16 bks, busW=4 BL=8 CL=12, tRRD=2 tCCD=6, tRCD=12 tRAS=28 tRP=12 tRC=40
n_cmd=190927 n_nop=189334 n_act=21 n_pre=5 n_req=886 n_rd=996 n_write=571 bw_util=0.01641
n_activity=11425 dram_eff=0.2743
bk0: 72a 190223i bk1: 64a 190270i bk2: 64a 190290i bk3: 64a 190236i bk4: 48a 190569i bk5: 44a 190550i bk6: 64a 190669i bk7: 64a 190601i bk8: 64a 190566i bk9: 64a 190499i bk10: 64a 190222i bk11: 64a 190207i bk12: 64a 190232i bk13: 64a 190280i bk14: 64a 190538i bk15: 64a 190509i 
dram_util_bins: 0 0 0 0 0 0 0 0 0 0
dram_eff_bins: 0 0 0 0 0 0 0 0 0 0
mrqq: max=16 avg=0.0329183
Memory Partition 2: 
Cache L2_bank_004:
MSHR contents

Cache L2_bank_005:
MSHR contents

In Dram Latency Queue (total = 0): 
DRAM[2]: 16 bks, busW=4 BL=8 CL=12, tRRD=2 tCCD=6, tRCD=12 tRAS=28 tRP=12 tRC=40
n_cmd=190927 n_nop=189340 n_act=19 n_pre=3 n_req=881 n_rd=996 n_write=569 bw_util=0.01639
n_activity=11140 dram_eff=0.281
bk0: 68a 190284i bk1: 64a 190265i bk2: 64a 190300i bk3: 64a 190260i bk4: 48a 190517i bk5: 48a 190562i bk6: 64a 190642i bk7: 64a 190589i bk8: 64a 190468i bk9: 64a 190522i bk10: 64a 190125i bk11: 64a 190106i bk12: 64a 190271i bk13: 64a 190240i bk14: 64a 190583i bk15: 64a 190501i 
dram_util_bins: 0 0 0 0 0 0 0 0 0 0
dram_eff_bins: 0 0 0 0 0 0 0 0 0 0
mrqq: max=16 avg=0.0366004
Memory Partition 3: 
Cache L2_bank_006:
MSHR contents

Cache L2_bank_007:
MSHR contents

In Dram Latency Queue (total = 0): 
DRAM[3]: 16 bks, busW=4 BL=8 CL=12, tRRD=2 tCCD=6, tRCD=12 tRAS=28 tRP=12 tRC=40
n_cmd=190927 n_nop=189348 n_act=19 n_pre=3 n_req=885 n_rd=996 n_write=561 bw_util=0.01631
n_activity=11224 dram_eff=0.2774
bk0: 68a 190283i bk1: 64a 190241i bk2: 64a 190298i bk3: 64a 190344i bk4: 48a 190545i bk5: 48a 190538i bk6: 64a 190653i bk7: 64a 190588i bk8: 64a 190459i bk9: 64a 190502i bk10: 64a 190042i bk11: 64a 190050i bk12: 64a 190305i bk13: 64a 190301i bk14: 64a 190568i bk15: 64a 190469i 
dram_util_bins: 0 0 0 0 0 0 0 0 0 0
dram_eff_bins: 0 0 0 0 0 0 0 0 0 0
mrqq: max=16 avg=0.0390254
Memory Partition 4: 
Cache L2_bank_008:
MSHR contents

Cache L2_bank_009:
MSHR contents

In Dram Latency Queue (total = 0): 
DRAM[4]: 16 bks, busW=4 BL=8 CL=12, tRRD=2 tCCD=6, tRCD=12 tRAS=28 tRP=12 tRC=40
n_cmd=190927 n_nop=189350 n_act=19 n_pre=3 n_req=876 n_rd=992 n_write=563 bw_util=0.01629
n_activity=11181 dram_eff=0.2782
bk0: 68a 190236i bk1: 64a 190272i bk2: 64a 190306i bk3: 64a 190297i bk4: 44a 190558i bk5: 48a 190567i bk6: 64a 190708i bk7: 64a 190613i bk8: 64a 190558i bk9: 64a 190461i bk10: 64a 190109i bk11: 64a 190081i bk12: 64a 190267i bk13: 64a 190297i bk14: 64a 190549i bk15: 64a 190461i 
dram_util_bins: 0 0 0 0 0 0 0 0 0 0
dram_eff_bins: 0 0 0 0 0 0 0 0 0 0
mrqq: max=13 avg=0.0342487
Memory Partition 5: 
Cache L2_bank_010:
MSHR contents

Cache L2_bank_011:
MSHR contents

In Dram Latency Queue (total = 0): 
DRAM[5]: 16 bks, busW=4 BL=8 CL=12, tRRD=2 tCCD=6, tRCD=12 tRAS=28 tRP=12 tRC=40
n_cmd=190927 n_nop=189361 n_act=19 n_pre=3 n_req=872 n_rd=992 n_write=552 bw_util=0.01617
n_activity=11324 dram_eff=0.2727
bk0: 68a 190245i bk1: 64a 190263i bk2: 64a 190330i bk3: 64a 190281i bk4: 44a 190574i bk5: 48a 190627i bk6: 64a 190702i bk7: 64a 190603i bk8: 64a 190569i bk9: 64a 190530i bk10: 64a 190160i bk11: 64a 190191i bk12: 64a 190306i bk13: 64a 190309i bk14: 64a 190509i bk15: 64a 190446i 
dram_util_bins: 0 0 0 0 0 0 0 0 0 0
dram_eff_bins: 0 0 0 0 0 0 0 0 0 0
mrqq: max=10 avg=0.0258423

========= L2 cache stats =========
L2_cache_bank[0]: Access = 5335, Miss = 251, Miss_rate = 0.047, Pending_hits = 90, Reservation_fails = 396
L2_cache_bank[1]: Access = 4755, Miss = 247, Miss_rate = 0.052, Pending_hits = 78, Reservation_fails = 74
L2_cache_bank[2]: Access = 5033, Miss = 252, Miss_rate = 0.050, Pending_hits = 96, Reservation_fails = 402
L2_cache_bank[3]: Access = 4631, Miss = 246, Miss_rate = 0.053, Pending_hits = 72, Reservation_fails = 20
L2_cache_bank[4]: Access = 4504, Miss = 250, Miss_rate = 0.056, Pending_hits = 76, Reservation_fails = 43
L2_cache_bank[5]: Access = 4775, Miss = 248, Miss_rate = 0.052, Pending_hits = 74, Reservation_fails = 30
L2_cache_bank[6]: Access = 4716, Miss = 250, Miss_rate = 0.053, Pending_hits = 74, Reservation_fails = 140
L2_cache_bank[7]: Access = 4810, Miss = 248, Miss_rate = 0.052, Pending_hits = 80, Reservation_fails = 31
L2_cache_bank[8]: Access = 5042, Miss = 248, Miss_rate = 0.049, Pending_hits = 68, Reservation_fails = 281
L2_cache_bank[9]: Access = 5278, Miss = 248, Miss_rate = 0.047, Pending_hits = 91, Reservation_fails = 31
L2_cache_bank[10]: Access = 4928, Miss = 248, Miss_rate = 0.050, Pending_hits = 81, Reservation_fails = 138
L2_cache_bank[11]: Access = 5197, Miss = 248, Miss_rate = 0.048, Pending_hits = 85, Reservation_fails = 76
L2_total_cache_accesses = 59004
L2_total_cache_misses = 2984
L2_total_cache_miss_rate = 0.0506
L2_total_cache_pending_hits = 965
L2_total_cache_reservation_fails = 1662
L2_total_cache_breakdown:
	L2_cache_stats_breakdown[GLOBAL_ACC_R][HIT] = 52790
	L2_cache_stats_breakdown[GLOBAL_ACC_R][HIT_RESERVED] = 634
	L2_cache_stats_breakdown[GLOBAL_ACC_R][MISS] = 985
	L2_cache_stats_breakdown[GLOBAL_ACC_R][RESERVATION_FAIL] = 787
	L2_cache_stats_breakdown[CONST_ACC_R][HIT] = 63
	L2_cache_stats_breakdown[CONST_ACC_R][HIT_RESERVED] = 9
	L2_cache_stats_breakdown[CONST_ACC_R][MISS] = 3
	L2_cache_stats_breakdown[CONST_ACC_R][RESERVATION_FAIL] = 303
	L2_cache_stats_breakdown[GLOBAL_ACC_W][HIT] = 2029
	L2_cache_stats_breakdown[GLOBAL_ACC_W][HIT_RESERVED] = 299
	L2_cache_stats_breakdown[GLOBAL_ACC_W][MISS] = 1982
	L2_cache_stats_breakdown[GLOBAL_ACC_W][RESERVATION_FAIL] = 8
	L2_cache_stats_breakdown[INST_ACC_R][HIT] = 173
	L2_cache_stats_breakdown[INST_ACC_R][HIT_RESERVED] = 23
	L2_cache_stats_breakdown[INST_ACC_R][MISS] = 14
	L2_cache_stats_breakdown[INST_ACC_R][RESERVATION_FAIL] = 564
L2_cache_data_port_util = 0.125
L2_cache_fill_port_util = 0.007

icnt_total_pkts_mem_to_simt=277630
icnt_total_pkts_simt_to_mem=70239
LD_mem_lat_dist  0 0 0 0 0 0 0 0 0 0 0 0 0 0 0 0 0 0 0 0 0 0 0 0 0 0 0
ST_mem_lat_dist  0 0 0 0 0 0 0 0 0 0 0 0 0 0 0 0 0 0 0 0 0 0 0 0 0 0 0
----------------------------Interconnect-DETAILS--------------------------------
Class 0:
Packet latency average = 10.5507
	minimum = 6
	maximum = 74
Network latency average = 10.0881
	minimum = 6
	maximum = 61
Slowest packet = 72155
Flit latency average = 8.76396
	minimum = 6
	maximum = 57
Slowest flit = 213466
Fragmentation average = 0
	minimum = 0
	maximum = 0
Injected packet rate average = 0.0170066
	minimum = 0.0130455 (at node 10)
	maximum = 0.0203162 (at node 20)
Accepted packet rate average = 0.0170066
	minimum = 0.0130455 (at node 10)
	maximum = 0.0203162 (at node 20)
Injected flit rate average = 0.0497139
	minimum = 0.0171662 (at node 10)
	maximum = 0.0935377 (at node 20)
Accepted flit rate average= 0.0497139
	minimum = 0.0236147 (at node 16)
	maximum = 0.0788973 (at node 2)
Injected packet length average = 2.9232
Accepted packet length average = 2.9232
Total in-flight flits = 0 (0 measured)
====== Overall Traffic Statistics ======
====== Traffic class 0 ======
Packet latency average = 24.9225 (2 samples)
	minimum = 6 (2 samples)
	maximum = 272.5 (2 samples)
Network latency average = 19.456 (2 samples)
	minimum = 6 (2 samples)
	maximum = 264.5 (2 samples)
Flit latency average = 13.6868 (2 samples)
	minimum = 6 (2 samples)
	maximum = 262.5 (2 samples)
Fragmentation average = 0.0015352 (2 samples)
	minimum = 0 (2 samples)
	maximum = 34.5 (2 samples)
Injected packet rate average = 0.0388746 (2 samples)
	minimum = 0.032582 (2 samples)
	maximum = 0.048852 (2 samples)
Accepted packet rate average = 0.0388746 (2 samples)
	minimum = 0.032582 (2 samples)
	maximum = 0.048852 (2 samples)
Injected flit rate average = 0.114871 (2 samples)
	minimum = 0.0373089 (2 samples)
	maximum = 0.23328 (2 samples)
Accepted flit rate average = 0.114871 (2 samples)
	minimum = 0.0462096 (2 samples)
	maximum = 0.189635 (2 samples)
Injected packet size average = 2.95491 (2 samples)
Accepted packet size average = 2.95491 (2 samples)
Hops average = 1 (2 samples)
