

        *** GPGPU-Sim Simulator Version 3.2.2  [build 0] ***


GPGPU-Sim PTX: simulation mode 0 (can change with PTX_SIM_MODE_FUNC environment variable:
               1=functional simulation only, 0=detailed performance simulator)
GPGPU-Sim: Configuration options:

-network_mode                           1 # Interconnection network mode
-inter_config_file   config_fermi_islip.icnt # Interconnection network config file
-gpgpu_ptx_use_cuobjdump                    1 # Use cuobjdump to extract ptx and sass from binaries
-gpgpu_experimental_lib_support                    0 # Try to extract code from cuda libraries [Broken because of unknown cudaGetExportTable]
-gpgpu_ptx_convert_to_ptxplus                    0 # Convert SASS (native ISA) to ptxplus and run ptxplus
-gpgpu_ptx_force_max_capability                   20 # Force maximum compute capability
-gpgpu_ptx_inst_debug_to_file                    0 # Dump executed instructions' debug information to file
-gpgpu_ptx_inst_debug_file       inst_debug.txt # Executed instructions' debug output file
-gpgpu_ptx_inst_debug_thread_uid                    1 # Thread UID for executed instructions' debug output
-gpgpu_simd_model                       1 # 1 = post-dominator
-gpgpu_shader_core_pipeline              1536:32 # shader core pipeline config, i.e., {<nthread>:<warpsize>}
-gpgpu_tex_cache:l1  4:128:24,L:R:m:N:L,F:128:4,128:2 # per-shader L1 texture cache  (READ-ONLY) config  {<nsets>:<bsize>:<assoc>,<rep>:<wr>:<alloc>:<wr_alloc>,<mshr>:<N>:<merge>,<mq>:<rf>}
-gpgpu_const_cache:l1 64:64:2,L:R:f:N:L,A:2:32,4 # per-shader L1 constant memory cache  (READ-ONLY) config  {<nsets>:<bsize>:<assoc>,<rep>:<wr>:<alloc>:<wr_alloc>,<mshr>:<N>:<merge>,<mq>} 
-gpgpu_cache:il1     4:128:4,L:R:f:N:L,A:2:32,4 # shader L1 instruction cache config  {<nsets>:<bsize>:<assoc>,<rep>:<wr>:<alloc>:<wr_alloc>,<mshr>:<N>:<merge>,<mq>} 
-gpgpu_cache:dl1     32:128:4,L:L:m:N:H,A:32:8,8:2,0,1:0:1:1:0:1,1:4:8:16:32:64,/sciclone/data10/hwang07/GPU_RESEARCH/swl/swl_outputs/RESULTS/swl8/ # per-shader L1 data cache config  {<nsets>:<bsize>:<assoc>,<rep>:<wr>:<alloc>:<wr_alloc>,<mshr>:<N>:<merge>,<mq> | none}
-gpgpu_cache:dl1PrefL1                 none # per-shader L1 data cache config  {<nsets>:<bsize>:<assoc>,<rep>:<wr>:<alloc>:<wr_alloc>,<mshr>:<N>:<merge>,<mq> | none}
-gpgpu_cache:dl1PreShared                 none # per-shader L1 data cache config  {<nsets>:<bsize>:<assoc>,<rep>:<wr>:<alloc>:<wr_alloc>,<mshr>:<N>:<merge>,<mq> | none}
-gmem_skip_L1D                          0 # global memory access skip L1D cache (implements -Xptxas -dlcm=cg, default=no skip)
-gpgpu_perfect_mem                      0 # enable perfect memory mode (no cache miss)
-n_regfile_gating_group                    4 # group of lanes that should be read/written together)
-gpgpu_clock_gated_reg_file                    0 # enable clock gated reg file for power calculations
-gpgpu_clock_gated_lanes                    0 # enable clock gated lanes for power calculations
-gpgpu_shader_registers                32768 # Number of registers per shader core. Limits number of concurrent CTAs. (default 8192)
-gpgpu_shader_cta                       8 # Maximum number of concurrent CTAs in shader (default 8)
-gpgpu_num_cta_barriers                   16 # Maximum number of named barriers per CTA (default 16)
-gpgpu_n_clusters                      15 # number of processing clusters
-gpgpu_n_cores_per_cluster                    1 # number of simd cores per cluster
-gpgpu_n_cluster_ejection_buffer_size                    8 # number of packets in ejection buffer
-gpgpu_n_ldst_response_buffer_size                    2 # number of response packets in ld/st unit ejection buffer
-gpgpu_shmem_size                   16384 # Size of shared memory per shader core (default 16kB)
-gpgpu_shmem_size                   49152 # Size of shared memory per shader core (default 16kB)
-gpgpu_shmem_size_PrefL1                16384 # Size of shared memory per shader core (default 16kB)
-gpgpu_shmem_size_PrefShared                16384 # Size of shared memory per shader core (default 16kB)
-gpgpu_shmem_num_banks                   32 # Number of banks in the shared memory in each shader core (default 16)
-gpgpu_shmem_limited_broadcast                    0 # Limit shared memory to do one broadcast per cycle (default on)
-gpgpu_shmem_warp_parts                    1 # Number of portions a warp is divided into for shared memory bank conflict check 
-gpgpu_warpdistro_shader                   -1 # Specify which shader core to collect the warp size distribution from
-gpgpu_warp_issue_shader                    0 # Specify which shader core to collect the warp issue distribution from
-gpgpu_local_mem_map                    1 # Mapping from local memory space address to simulated GPU physical address space (default = enabled)
-gpgpu_num_reg_banks                   16 # Number of register banks (default = 8)
-gpgpu_reg_bank_use_warp_id                    0 # Use warp ID in mapping registers to banks (default = off)
-gpgpu_operand_collector_num_units_sp                    6 # number of collector units (default = 4)
-gpgpu_operand_collector_num_units_sfu                    8 # number of collector units (default = 4)
-gpgpu_operand_collector_num_units_mem                    2 # number of collector units (default = 2)
-gpgpu_operand_collector_num_units_gen                    0 # number of collector units (default = 0)
-gpgpu_operand_collector_num_in_ports_sp                    2 # number of collector unit in ports (default = 1)
-gpgpu_operand_collector_num_in_ports_sfu                    1 # number of collector unit in ports (default = 1)
-gpgpu_operand_collector_num_in_ports_mem                    1 # number of collector unit in ports (default = 1)
-gpgpu_operand_collector_num_in_ports_gen                    0 # number of collector unit in ports (default = 0)
-gpgpu_operand_collector_num_out_ports_sp                    2 # number of collector unit in ports (default = 1)
-gpgpu_operand_collector_num_out_ports_sfu                    1 # number of collector unit in ports (default = 1)
-gpgpu_operand_collector_num_out_ports_mem                    1 # number of collector unit in ports (default = 1)
-gpgpu_operand_collector_num_out_ports_gen                    0 # number of collector unit in ports (default = 0)
-gpgpu_coalesce_arch                   13 # Coalescing arch (default = 13, anything else is off for now)
-gpgpu_num_sched_per_core                    2 # Number of warp schedulers per core
-gpgpu_max_insn_issue_per_warp                    1 # Max number of instructions that can be issued per warp in one cycle by scheduler
-gpgpu_simt_core_sim_order                    1 # Select the simulation order of cores in a cluster (0=Fix, 1=Round-Robin)
-gpgpu_pipeline_widths        2,1,1,2,1,1,2 # Pipeline widths ID_OC_SP,ID_OC_SFU,ID_OC_MEM,OC_EX_SP,OC_EX_SFU,OC_EX_MEM,EX_WB
-gpgpu_num_sp_units                     2 # Number of SP units (default=1)
-gpgpu_num_sfu_units                    1 # Number of SF units (default=1)
-gpgpu_num_mem_units                    1 # Number if ldst units (default=1) WARNING: not hooked up to anything
-gpgpu_scheduler        warp_limiting:2:8 # Scheduler configuration: < lrr | gto | two_level_active > If two_level_active:<num_active_warps>:<inner_prioritization>:<outer_prioritization>For complete list of prioritization values see shader.h enum scheduler_prioritization_typeDefault: gto
-gpgpu_dram_scheduler                    1 # 0 = fifo, 1 = FR-FCFS (defaul)
-gpgpu_dram_partition_queues              8:8:8:8 # i2$:$2d:d2$:$2i
-l2_ideal                               0 # Use a ideal L2 cache that always hit
-gpgpu_cache:dl2     64:128:8,L:B:m:W:L,A:32:4,4:0,32 # unified banked L2 data cache config  {<nsets>:<bsize>:<assoc>,<rep>:<wr>:<alloc>:<wr_alloc>,<mshr>:<N>:<merge>,<mq>}
-gpgpu_cache:dl2_texture_only                    0 # L2 cache used for texture only
-gpgpu_n_mem                            6 # number of memory modules (e.g. memory controllers) in gpu
-gpgpu_n_sub_partition_per_mchannel                    2 # number of memory subpartition in each memory module
-gpgpu_n_mem_per_ctrlr                    2 # number of memory chips per memory controller
-gpgpu_memlatency_stat                   14 # track and display latency statistics 0x2 enables MC, 0x4 enables queue logs
-gpgpu_frfcfs_dram_sched_queue_size                   16 # 0 = unlimited (default); # entries per chip
-gpgpu_dram_return_queue_size                  116 # 0 = unlimited (default); # entries per chip
-gpgpu_dram_buswidth                    4 # default = 4 bytes (8 bytes per cycle at DDR)
-gpgpu_dram_burst_length                    8 # Burst length of each DRAM request (default = 4 data bus cycle)
-dram_data_command_freq_ratio                    4 # Frequency ratio between DRAM data bus and command bus (default = 2 times, i.e. DDR)
-gpgpu_dram_timing_opt nbk=16:CCD=2:RRD=6:RCD=12:RAS=28:RP=12:RC=40: CL=12:WL=4:CDLR=5:WR=12:nbkgrp=4:CCDL=3:RTPL=2 # DRAM timing parameters = {nbk:tCCD:tRRD:tRCD:tRAS:tRP:tRC:CL:WL:tCDLR:tWR:nbkgrp:tCCDL:tRTPL}
-rop_latency                          120 # ROP queue latency (default 85)
-dram_latency                         100 # DRAM latency (default 30)
-gpgpu_mem_addr_mapping dramid@8;00000000.00000000.00000000.00000000.0000RRRR.RRRRRRRR.BBBCCCCB.CCSSSSSS # mapping memory address to dram model {dramid@<start bit>;<memory address map>}
-gpgpu_mem_addr_test                    0 # run sweep test to check address mapping for aliased address
-gpgpu_mem_address_mask                    1 # 0 = old addressing mask, 1 = new addressing mask, 2 = new add. mask + flipped bank sel and chip sel bits
-gpuwattch_xml_file  gpuwattch_gtx480.xml # GPUWattch XML file
-power_simulation_enabled                    0 # Turn on power simulator (1=On, 0=Off)
-power_per_cycle_dump                    0 # Dump detailed power output each cycle
-power_trace_enabled                    0 # produce a file for the power trace (1=On, 0=Off)
-power_trace_zlevel                     6 # Compression level of the power trace output log (0=no comp, 9=highest)
-steady_power_levels_enabled                    0 # produce a file for the steady power levels (1=On, 0=Off)
-steady_state_definition                  8:4 # allowed deviation:number of samples
-gpgpu_max_cycle                        0 # terminates gpu simulation early (0 = no limit)
-gpgpu_max_insn                         0 # terminates gpu simulation early (0 = no limit)
-gpgpu_max_cta                          0 # terminates gpu simulation early (0 = no limit)
-gpgpu_runtime_stat                   500 # display runtime statistics such as dram utilization {<freq>:<flag>}
-liveness_message_freq                    1 # Minimum number of seconds between simulation liveness messages (0 = always print)
-gpgpu_flush_l1_cache                    0 # Flush L1 cache at the end of each kernel call
-gpgpu_flush_l2_cache                    0 # Flush L2 cache at the end of each kernel call
-gpgpu_deadlock_detect                    1 # Stop the simulation at deadlock (1=on (default), 0=off)
-gpgpu_ptx_instruction_classification                    0 # if enabled will classify ptx instruction types per kernel (Max 255 kernels now)
-gpgpu_ptx_sim_mode                     0 # Select between Performance (default) or Functional simulation (1)
-gpgpu_clock_domains 700.0:700.0:700.0:924.0 # Clock Domain Frequencies in MhZ {<Core Clock>:<ICNT Clock>:<L2 Clock>:<DRAM Clock>}
-gpgpu_max_concurrent_kernel                    8 # maximum kernels that can run concurrently on GPU
-gpgpu_cflog_interval                    0 # Interval between each snapshot in control flow logger
-visualizer_enabled                     0 # Turn on visualizer output (1=On, 0=Off)
-visualizer_outputfile                 NULL # Specifies the output log file for visualizer
-visualizer_zlevel                      6 # Compression level of the visualizer output log (0=no comp, 9=highest)
-trace_enabled                          0 # Turn on traces
-trace_components                    none # comma seperated list of traces to enable. Complete list found in trace_streams.tup. Default none
-trace_sampling_core                    0 # The core which is printed using CORE_DPRINTF. Default 0
-trace_sampling_memory_partition                   -1 # The memory partition which is printed using MEMPART_DPRINTF. Default -1 (i.e. all)
-enable_ptx_file_line_stats                    1 # Turn on PTX source line statistic profiling. (1 = On)
-ptx_line_stats_filename gpgpu_inst_stats.txt # Output file for PTX source line statistics.
-save_embedded_ptx                      0 # saves ptx files embedded in binary as <n>.ptx
-keep                                   0 # keep intermediate files created by GPGPU-Sim when interfacing with external programs
-gpgpu_ptx_save_converted_ptxplus                    0 # Saved converted ptxplus to a file
-ptx_opcode_latency_int         4,13,4,5,145 # Opcode latencies for integers <ADD,MAX,MUL,MAD,DIV>Default 1,1,19,25,145
-ptx_opcode_latency_fp          4,13,4,5,39 # Opcode latencies for single precision floating points <ADD,MAX,MUL,MAD,DIV>Default 1,1,1,1,30
-ptx_opcode_latency_dp         8,19,8,8,330 # Opcode latencies for double precision floating points <ADD,MAX,MUL,MAD,DIV>Default 8,8,8,8,335
-ptx_opcode_initiation_int            1,2,2,1,8 # Opcode initiation intervals for integers <ADD,MAX,MUL,MAD,DIV>Default 1,1,4,4,32
-ptx_opcode_initiation_fp            1,2,1,1,4 # Opcode initiation intervals for single precision floating points <ADD,MAX,MUL,MAD,DIV>Default 1,1,1,1,5
-ptx_opcode_initiation_dp         8,16,8,8,130 # Opcode initiation intervals for double precision floating points <ADD,MAX,MUL,MAD,DIV>Default 8,8,8,8,130
DRAM Timing Options:
nbk                                    16 # number of banks
CCD                                     2 # column to column delay
RRD                                     6 # minimal delay between activation of rows in different banks
RCD                                    12 # row to column delay
RAS                                    28 # time needed to activate row
RP                                     12 # time needed to precharge (deactivate) row
RC                                     40 # row cycle time
CDLR                                    5 # switching from write to read (changes tWTR)
WR                                     12 # last data-in to row precharge
CL                                     12 # CAS latency
WL                                      4 # Write latency
nbkgrp                                  4 # number of bank groups
CCDL                                    3 # column to column delay between accesses to different bank groups
RTPL                                    2 # read to precharge delay between accesses to different bank groups
Total number of memory sub partition = 12
addr_dec_mask[CHIP]  = 0000000000000000 	high:64 low:0
addr_dec_mask[BK]    = 000000000000e100 	high:16 low:8
addr_dec_mask[ROW]   = 000000000fff0000 	high:28 low:16
addr_dec_mask[COL]   = 0000000000001eff 	high:13 low:0
addr_dec_mask[BURST] = 000000000000003f 	high:6 low:0
sub_partition_id_mask = 0000000000000100
GPGPU-Sim uArch: clock freqs: 700000000.000000:700000000.000000:700000000.000000:924000000.000000
GPGPU-Sim uArch: clock periods: 0.00000000142857142857:0.00000000142857142857:0.00000000142857142857:0.00000000108225108225
*** Initializing Memory Statistics ***
GPGPU-Sim uArch: interconnect node map (shaderID+MemID to icntID)
GPGPU-Sim uArch: Memory nodes ID start from index: 15
GPGPU-Sim uArch:    0   1   2   3   4
GPGPU-Sim uArch:    5   6   7   8   9
GPGPU-Sim uArch:   10  11  12  13  14
GPGPU-Sim uArch:   15  16  17  18  19
GPGPU-Sim uArch:   20  21  22  23  24
GPGPU-Sim uArch:   25  26
GPGPU-Sim uArch: interconnect node reverse map (icntID to shaderID+MemID)
GPGPU-Sim uArch: Memory nodes start from ID: 15
GPGPU-Sim uArch:    0   1   2   3   4
GPGPU-Sim uArch:    5   6   7   8   9
GPGPU-Sim uArch:   10  11  12  13  14
GPGPU-Sim uArch:   15  16  17  18  19
GPGPU-Sim uArch:   20  21  22  23  24
GPGPU-Sim uArch:   25  26
8ef9342edb8cdfc3e3546abba4d98120  /sciclone/data10/hwang07/adwait/applications/benchmarks/CUDA/NN/gpgpu_ptx_sim__NN
GPGPU-Sim uArch: performance model initialization complete.
GPGPU-Sim PTX: __cudaRegisterFatBinary, fat_cubin_handle = 1, filename=NN.cu
self exe links to: /sciclone/data10/hwang07/adwait/applications/benchmarks/CUDA/NN/gpgpu_ptx_sim__NN
Running md5sum using "md5sum /sciclone/data10/hwang07/adwait/applications/benchmarks/CUDA/NN/gpgpu_ptx_sim__NN "
Parsing file _cuobjdump_complete_output_3CjSiK
######### cuobjdump parser ########
## Adding new section ELF
Adding arch: sm_20
Adding identifier: NN.cu
## Adding new section PTX
Adding ptx filename: _cuobjdump_1.ptx
Adding arch: sm_20
Adding identifier: NN.cu
Done parsing!!!
GPGPU-Sim PTX: __cudaRegisterFunction _Z18executeFourthLayerPfS_S_ : hostFun 0x0x4028e3, fat_cubin_handle = 1
GPGPU-Sim PTX: allocating constant region for "kernelTemplate" from 0x100 to 0x164 (global memory space) 1
GPGPU-Sim PTX: instruction assembly for function '_Z17executeFirstLayerPfS_S_'...   done.
GPGPU-Sim PTX: finding reconvergence points for '_Z17executeFirstLayerPfS_S_'...
GPGPU-Sim PTX: Finding dominators for '_Z17executeFirstLayerPfS_S_'...
GPGPU-Sim PTX: Finding immediate dominators for '_Z17executeFirstLayerPfS_S_'...
GPGPU-Sim PTX: Finding postdominators for '_Z17executeFirstLayerPfS_S_'...
GPGPU-Sim PTX: Finding immediate postdominators for '_Z17executeFirstLayerPfS_S_'...
GPGPU-Sim PTX: pre-decoding instructions for '_Z17executeFirstLayerPfS_S_'...
GPGPU-Sim PTX: reconvergence points for _Z17executeFirstLayerPfS_S_...
GPGPU-Sim PTX:  1 (potential) branch divergence @  PC=0x100 (_1.ptx:100) @%p1 bra $Lt_0_4098;
GPGPU-Sim PTX:    immediate post dominator      @  PC=0x108 (_1.ptx:102) cvt.f64.f32 %fd1, %f1;
GPGPU-Sim PTX:  2 (potential) branch divergence @  PC=0x148 (_1.ptx:110) @!%p2 bra $Lt_0_4866;
GPGPU-Sim PTX:    immediate post dominator      @  PC=0x2a8 (_1.ptx:162) cvt.f64.f32 %fd5, %f29;
GPGPU-Sim PTX:  3 (potential) branch divergence @  PC=0x230 (_1.ptx:142) bra.uni $Lt_0_4610;
GPGPU-Sim PTX:    immediate post dominator      @  PC=0x2a8 (_1.ptx:162) cvt.f64.f32 %fd5, %f29;
GPGPU-Sim PTX: ... end of reconvergence points for _Z17executeFirstLayerPfS_S_
GPGPU-Sim PTX: ... done pre-decoding instructions for '_Z17executeFirstLayerPfS_S_'.
GPGPU-Sim PTX: allocating constant region for "kernelTemplate2" from 0x180 to 0x1e4 (global memory space) 2
GPGPU-Sim PTX: instruction assembly for function '_Z18executeSecondLayerPfS_S_'...   done.
GPGPU-Sim PTX: finding reconvergence points for '_Z18executeSecondLayerPfS_S_'...
GPGPU-Sim PTX: Finding dominators for '_Z18executeSecondLayerPfS_S_'...
GPGPU-Sim PTX: Finding immediate dominators for '_Z18executeSecondLayerPfS_S_'...
GPGPU-Sim PTX: Finding postdominators for '_Z18executeSecondLayerPfS_S_'...
GPGPU-Sim PTX: Finding immediate postdominators for '_Z18executeSecondLayerPfS_S_'...
GPGPU-Sim PTX: pre-decoding instructions for '_Z18executeSecondLayerPfS_S_'...
GPGPU-Sim PTX: reconvergence points for _Z18executeSecondLayerPfS_S_...
GPGPU-Sim PTX:  1 (potential) branch divergence @  PC=0x4a0 (_1.ptx:251) @%p1 bra $Lt_1_5634;
GPGPU-Sim PTX:    immediate post dominator      @  PC=0x4a8 (_1.ptx:253) cvt.f64.f32 %fd1, %f1;
GPGPU-Sim PTX:  2 (potential) branch divergence @  PC=0x4e8 (_1.ptx:261) @!%p2 bra $Lt_1_6402;
GPGPU-Sim PTX:    immediate post dominator      @  PC=0x648 (_1.ptx:313) cvt.f64.f32 %fd5, %f44;
GPGPU-Sim PTX:  3 (potential) branch divergence @  PC=0x5d0 (_1.ptx:293) bra.uni $Lt_1_6146;
GPGPU-Sim PTX:    immediate post dominator      @  PC=0x648 (_1.ptx:313) cvt.f64.f32 %fd5, %f44;
GPGPU-Sim PTX: ... end of reconvergence points for _Z18executeSecondLayerPfS_S_
GPGPU-Sim PTX: ... done pre-decoding instructions for '_Z18executeSecondLayerPfS_S_'.
GPGPU-Sim PTX: instruction assembly for function '_Z17executeThirdLayerPfS_S_'...   done.
GPGPU-Sim PTX: finding reconvergence points for '_Z17executeThirdLayerPfS_S_'...
GPGPU-Sim PTX: Finding dominators for '_Z17executeThirdLayerPfS_S_'...
GPGPU-Sim PTX: Finding immediate dominators for '_Z17executeThirdLayerPfS_S_'...
GPGPU-Sim PTX: Finding postdominators for '_Z17executeThirdLayerPfS_S_'...
GPGPU-Sim PTX: Finding immediate postdominators for '_Z17executeThirdLayerPfS_S_'...
GPGPU-Sim PTX: pre-decoding instructions for '_Z17executeThirdLayerPfS_S_'...
GPGPU-Sim PTX: reconvergence points for _Z17executeThirdLayerPfS_S_...
GPGPU-Sim PTX:  1 (potential) branch divergence @  PC=0x788 (_1.ptx:373) @%p1 bra $Lt_2_4098;
GPGPU-Sim PTX:    immediate post dominator      @  PC=0x790 (_1.ptx:375) cvt.f64.f32 %fd1, %f1;
GPGPU-Sim PTX:  2 (potential) branch divergence @  PC=0x7d0 (_1.ptx:383) @!%p2 bra $Lt_2_4866;
GPGPU-Sim PTX:    immediate post dominator      @  PC=0x930 (_1.ptx:435) cvt.f64.f32 %fd5, %f29;
GPGPU-Sim PTX:  3 (potential) branch divergence @  PC=0x8b8 (_1.ptx:415) bra.uni $Lt_2_4610;
GPGPU-Sim PTX:    immediate post dominator      @  PC=0x930 (_1.ptx:435) cvt.f64.f32 %fd5, %f29;
GPGPU-Sim PTX: ... end of reconvergence points for _Z17executeThirdLayerPfS_S_
GPGPU-Sim PTX: ... done pre-decoding instructions for '_Z17executeThirdLayerPfS_S_'.
GPGPU-Sim PTX: instruction assembly for function '_Z18executeFourthLayerPfS_S_'...   done.
GPGPU-Sim PTX: finding reconvergence points for '_Z18executeFourthLayerPfS_S_'...
GPGPU-Sim PTX: Finding dominators for '_Z18executeFourthLayerPfS_S_'...
GPGPU-Sim PTX: Finding immediate dominators for '_Z18executeFourthLayerPfS_S_'...
GPGPU-Sim PTX: Finding postdominators for '_Z18executeFourthLayerPfS_S_'...
GPGPU-Sim PTX: Finding immediate postdominators for '_Z18executeFourthLayerPfS_S_'...
GPGPU-Sim PTX: pre-decoding instructions for '_Z18executeFourthLayerPfS_S_'...
GPGPU-Sim PTX: reconvergence points for _Z18executeFourthLayerPfS_S_...
GPGPU-Sim PTX:  1 (potential) branch divergence @  PC=0xa50 (_1.ptx:491) @%p1 bra $Lt_3_4098;
GPGPU-Sim PTX:    immediate post dominator      @  PC=0xa58 (_1.ptx:493) cvt.f64.f32 %fd1, %f1;
GPGPU-Sim PTX:  2 (potential) branch divergence @  PC=0xa98 (_1.ptx:501) @!%p2 bra $Lt_3_4866;
GPGPU-Sim PTX:    immediate post dominator      @  PC=0xbf8 (_1.ptx:553) cvt.f64.f32 %fd5, %f29;
GPGPU-Sim PTX:  3 (potential) branch divergence @  PC=0xb80 (_1.ptx:533) bra.uni $Lt_3_4610;
GPGPU-Sim PTX:    immediate post dominator      @  PC=0xbf8 (_1.ptx:553) cvt.f64.f32 %fd5, %f29;
GPGPU-Sim PTX: ... end of reconvergence points for _Z18executeFourthLayerPfS_S_
GPGPU-Sim PTX: ... done pre-decoding instructions for '_Z18executeFourthLayerPfS_S_'.
GPGPU-Sim PTX: finished parsing EMBEDDED .ptx file _1.ptx
Adding _cuobjdump_1.ptx with cubin handle 1
GPGPU-Sim PTX: extracting embedded .ptx to temporary file "_ptx_CpiGkp"
Running: cat _ptx_CpiGkp | sed 's/.version 1.5/.version 1.4/' | sed 's/, texmode_independent//' | sed 's/\(\.extern \.const\[1\] .b8 \w\+\)\[\]/\1\[1\]/' | sed 's/const\[.\]/const\[0\]/g' > _ptx2_xEst05
GPGPU-Sim PTX: generating ptxinfo using "$CUDA_INSTALL_PATH/bin/ptxas --gpu-name=sm_20 -v _ptx2_xEst05 --output-file  /dev/null 2> _ptx_CpiGkpinfo"
GPGPU-Sim PTX: Kernel '_Z18executeFourthLayerPfS_S_' : regs=12, lmem=0, smem=0, cmem=288
GPGPU-Sim PTX: Kernel '_Z17executeThirdLayerPfS_S_' : regs=12, lmem=0, smem=0, cmem=288
GPGPU-Sim PTX: Kernel '_Z18executeSecondLayerPfS_S_' : regs=22, lmem=0, smem=0, cmem=288
GPGPU-Sim PTX: Kernel '_Z17executeFirstLayerPfS_S_' : regs=17, lmem=0, smem=0, cmem=288
GPGPU-Sim PTX: removing ptxinfo using "rm -f _ptx_CpiGkp _ptx2_xEst05 _ptx_CpiGkpinfo"
GPGPU-Sim PTX: loading globals with explicit initializers... 
GPGPU-Sim PTX: finished loading globals (0 bytes total).
GPGPU-Sim PTX: loading constants with explicit initializers...  done.
GPGPU-Sim PTX: __cudaRegisterFunction _Z17executeThirdLayerPfS_S_ : hostFun 0x0x402821, fat_cubin_handle = 1
GPGPU-Sim PTX: __cudaRegisterFunction _Z18executeSecondLayerPfS_S_ : hostFun 0x0x40275f, fat_cubin_handle = 1
GPGPU-Sim PTX: __cudaRegisterFunction _Z17executeFirstLayerPfS_S_ : hostFun 0x0x40269d, fat_cubin_handle = 1
GPGPU-Sim PTX: __cudaRegisterVar: hostVar = 0x609e60; deviceAddress = kernelTemplate; deviceName = kernelTemplate
GPGPU-Sim PTX: __cudaRegisterVar: Registering const memory space of 100 bytes
GPGPU-Sim PTX registering constant kernelTemplate (100 bytes) to name mapping
GPGPU-Sim PTX: __cudaRegisterVar: hostVar = 0x609ee0; deviceAddress = kernelTemplate2; deviceName = kernelTemplate2
GPGPU-Sim PTX: __cudaRegisterVar: Registering const memory space of 100 bytes
GPGPU-Sim PTX registering constant kernelTemplate2 (100 bytes) to name mapping
magic number = 2051
number of items = 10000
number of rows = 28
number of rows = 28
NUM=28

GPGPU-Sim PTX: cudaLaunch for 0x0x40269d (mode=performance simulation) on stream 0
GPGPU-Sim PTX: pushing kernel '_Z17executeFirstLayerPfS_S_' to stream 0, gridDim= (6,28,1) blockDim = (13,13,1) 
kernel '_Z17executeFirstLayerPfS_S_' transfer to GPU hardware scheduler
GPGPU-Sim uArch: Shader 1 bind to kernel 1 '_Z17executeFirstLayerPfS_S_'
GPGPU-Sim uArch: CTA/core = 8, limited by: threads regs cta_limit
GPGPU-Sim uArch: core:  1, cta: 0 initialized @(1,0)
GPGPU-Sim uArch: Shader 2 bind to kernel 1 '_Z17executeFirstLayerPfS_S_'
GPGPU-Sim uArch: core:  2, cta: 0 initialized @(1,0)
GPGPU-Sim uArch: Shader 3 bind to kernel 1 '_Z17executeFirstLayerPfS_S_'
GPGPU-Sim uArch: core:  3, cta: 0 initialized @(1,0)
GPGPU-Sim uArch: Shader 4 bind to kernel 1 '_Z17executeFirstLayerPfS_S_'
GPGPU-Sim uArch: core:  4, cta: 0 initialized @(1,0)
GPGPU-Sim uArch: Shader 5 bind to kernel 1 '_Z17executeFirstLayerPfS_S_'
GPGPU-Sim uArch: core:  5, cta: 0 initialized @(1,0)
GPGPU-Sim uArch: Shader 6 bind to kernel 1 '_Z17executeFirstLayerPfS_S_'
GPGPU-Sim uArch: core:  6, cta: 0 initialized @(1,0)
GPGPU-Sim uArch: Shader 7 bind to kernel 1 '_Z17executeFirstLayerPfS_S_'
GPGPU-Sim uArch: core:  7, cta: 0 initialized @(1,0)
GPGPU-Sim uArch: Shader 8 bind to kernel 1 '_Z17executeFirstLayerPfS_S_'
GPGPU-Sim uArch: core:  8, cta: 0 initialized @(1,0)
GPGPU-Sim uArch: Shader 9 bind to kernel 1 '_Z17executeFirstLayerPfS_S_'
GPGPU-Sim uArch: core:  9, cta: 0 initialized @(1,0)
GPGPU-Sim uArch: Shader 10 bind to kernel 1 '_Z17executeFirstLayerPfS_S_'
GPGPU-Sim uArch: core: 10, cta: 0 initialized @(1,0)
GPGPU-Sim uArch: Shader 11 bind to kernel 1 '_Z17executeFirstLayerPfS_S_'
GPGPU-Sim uArch: core: 11, cta: 0 initialized @(1,0)
GPGPU-Sim uArch: Shader 12 bind to kernel 1 '_Z17executeFirstLayerPfS_S_'
GPGPU-Sim uArch: core: 12, cta: 0 initialized @(1,0)
GPGPU-Sim uArch: Shader 13 bind to kernel 1 '_Z17executeFirstLayerPfS_S_'
GPGPU-Sim uArch: core: 13, cta: 0 initialized @(1,0)
GPGPU-Sim uArch: Shader 14 bind to kernel 1 '_Z17executeFirstLayerPfS_S_'
GPGPU-Sim uArch: core: 14, cta: 0 initialized @(1,0)
GPGPU-Sim uArch: Shader 0 bind to kernel 1 '_Z17executeFirstLayerPfS_S_'
GPGPU-Sim uArch: core:  0, cta: 0 initialized @(1,0)
GPGPU-Sim uArch: core:  1, cta: 1 initialized @(2,0)
GPGPU-Sim uArch: core:  2, cta: 1 initialized @(2,0)
GPGPU-Sim uArch: core:  3, cta: 1 initialized @(2,0)
GPGPU-Sim uArch: core:  4, cta: 1 initialized @(2,0)
GPGPU-Sim uArch: core:  5, cta: 1 initialized @(2,0)
GPGPU-Sim uArch: core:  6, cta: 1 initialized @(2,0)
GPGPU-Sim uArch: core:  7, cta: 1 initialized @(2,0)
GPGPU-Sim uArch: core:  8, cta: 1 initialized @(2,0)
GPGPU-Sim uArch: core:  9, cta: 1 initialized @(2,0)
GPGPU-Sim uArch: core: 10, cta: 1 initialized @(2,0)
GPGPU-Sim uArch: core: 11, cta: 1 initialized @(2,0)
GPGPU-Sim uArch: core: 12, cta: 1 initialized @(2,0)
GPGPU-Sim uArch: core: 13, cta: 1 initialized @(2,0)
GPGPU-Sim uArch: core: 14, cta: 1 initialized @(2,0)
GPGPU-Sim uArch: core:  0, cta: 1 initialized @(2,0)
GPGPU-Sim uArch: core:  1, cta: 2 initialized @(3,0)
GPGPU-Sim uArch: core:  2, cta: 2 initialized @(3,0)
GPGPU-Sim uArch: core:  3, cta: 2 initialized @(3,0)
GPGPU-Sim uArch: core:  4, cta: 2 initialized @(3,0)
GPGPU-Sim uArch: core:  5, cta: 2 initialized @(3,0)
GPGPU-Sim uArch: core:  6, cta: 2 initialized @(3,0)
GPGPU-Sim uArch: core:  7, cta: 2 initialized @(3,0)
GPGPU-Sim uArch: core:  8, cta: 2 initialized @(3,0)
GPGPU-Sim uArch: core:  9, cta: 2 initialized @(3,0)
GPGPU-Sim uArch: core: 10, cta: 2 initialized @(3,0)
GPGPU-Sim uArch: core: 11, cta: 2 initialized @(3,0)
GPGPU-Sim uArch: core: 12, cta: 2 initialized @(3,0)
GPGPU-Sim uArch: core: 13, cta: 2 initialized @(3,0)
GPGPU-Sim uArch: core: 14, cta: 2 initialized @(3,0)
GPGPU-Sim uArch: core:  0, cta: 2 initialized @(3,0)
GPGPU-Sim uArch: core:  1, cta: 3 initialized @(4,0)
GPGPU-Sim uArch: core:  2, cta: 3 initialized @(4,0)
GPGPU-Sim uArch: core:  3, cta: 3 initialized @(4,0)
GPGPU-Sim uArch: core:  4, cta: 3 initialized @(4,0)
GPGPU-Sim uArch: core:  5, cta: 3 initialized @(4,0)
GPGPU-Sim uArch: core:  6, cta: 3 initialized @(4,0)
GPGPU-Sim uArch: core:  7, cta: 3 initialized @(4,0)
GPGPU-Sim uArch: core:  8, cta: 3 initialized @(4,0)
GPGPU-Sim uArch: core:  9, cta: 3 initialized @(4,0)
GPGPU-Sim uArch: core: 10, cta: 3 initialized @(4,0)
GPGPU-Sim uArch: core: 11, cta: 3 initialized @(4,0)
GPGPU-Sim uArch: core: 12, cta: 3 initialized @(4,0)
GPGPU-Sim uArch: core: 13, cta: 3 initialized @(4,0)
GPGPU-Sim uArch: core: 14, cta: 3 initialized @(4,0)
GPGPU-Sim uArch: core:  0, cta: 3 initialized @(4,0)
GPGPU-Sim uArch: core:  1, cta: 4 initialized @(5,0)
GPGPU-Sim uArch: core:  2, cta: 4 initialized @(5,0)
GPGPU-Sim uArch: core:  3, cta: 4 initialized @(5,0)
GPGPU-Sim uArch: core:  4, cta: 4 initialized @(5,0)
GPGPU-Sim uArch: core:  5, cta: 4 initialized @(5,0)
GPGPU-Sim uArch: core:  6, cta: 4 initialized @(5,0)
GPGPU-Sim uArch: core:  7, cta: 4 initialized @(5,0)
GPGPU-Sim uArch: core:  8, cta: 4 initialized @(5,0)
GPGPU-Sim uArch: core:  9, cta: 4 initialized @(5,0)
GPGPU-Sim uArch: core: 10, cta: 4 initialized @(5,0)
GPGPU-Sim uArch: core: 11, cta: 4 initialized @(5,0)
GPGPU-Sim uArch: core: 12, cta: 4 initialized @(5,0)
GPGPU-Sim uArch: core: 13, cta: 4 initialized @(5,0)
GPGPU-Sim uArch: core: 14, cta: 4 initialized @(5,0)
GPGPU-Sim uArch: core:  0, cta: 4 initialized @(5,0)
GPGPU-Sim uArch: core:  1, cta: 5 initialized @(6,0)
GPGPU-Sim uArch: core:  2, cta: 5 initialized @(6,0)
GPGPU-Sim uArch: core:  3, cta: 5 initialized @(6,0)
GPGPU-Sim uArch: core:  4, cta: 5 initialized @(6,0)
GPGPU-Sim uArch: core:  5, cta: 5 initialized @(6,0)
GPGPU-Sim uArch: core:  6, cta: 5 initialized @(6,0)
GPGPU-Sim uArch: core:  7, cta: 5 initialized @(6,0)
GPGPU-Sim uArch: core:  8, cta: 5 initialized @(6,0)
GPGPU-Sim uArch: core:  9, cta: 5 initialized @(6,0)
GPGPU-Sim uArch: core: 10, cta: 5 initialized @(6,0)
GPGPU-Sim uArch: core: 11, cta: 5 initialized @(6,0)
GPGPU-Sim uArch: core: 12, cta: 5 initialized @(6,0)
GPGPU-Sim uArch: core: 13, cta: 5 initialized @(6,0)
GPGPU-Sim uArch: core: 14, cta: 5 initialized @(6,0)
GPGPU-Sim uArch: core:  0, cta: 5 initialized @(6,0)
GPGPU-Sim uArch: core:  1, cta: 6 initialized @(7,0)
GPGPU-Sim uArch: core:  2, cta: 6 initialized @(7,0)
GPGPU-Sim uArch: core:  3, cta: 6 initialized @(7,0)
GPGPU-Sim uArch: core:  4, cta: 6 initialized @(7,0)
GPGPU-Sim uArch: core:  5, cta: 6 initialized @(7,0)
GPGPU-Sim uArch: core:  6, cta: 6 initialized @(7,0)
GPGPU-Sim uArch: core:  7, cta: 6 initialized @(7,0)
GPGPU-Sim uArch: core:  8, cta: 6 initialized @(7,0)
GPGPU-Sim uArch: core:  9, cta: 6 initialized @(7,0)
GPGPU-Sim uArch: core: 10, cta: 6 initialized @(7,0)
GPGPU-Sim uArch: core: 11, cta: 6 initialized @(7,0)
GPGPU-Sim uArch: core: 12, cta: 6 initialized @(7,0)
GPGPU-Sim uArch: core: 13, cta: 6 initialized @(7,0)
GPGPU-Sim uArch: core: 14, cta: 6 initialized @(7,0)
GPGPU-Sim uArch: core:  0, cta: 6 initialized @(7,0)
GPGPU-Sim uArch: core:  1, cta: 7 initialized @(8,0)
GPGPU-Sim uArch: core:  2, cta: 7 initialized @(8,0)
GPGPU-Sim uArch: core:  3, cta: 7 initialized @(8,0)
GPGPU-Sim uArch: core:  4, cta: 7 initialized @(8,0)
GPGPU-Sim uArch: core:  5, cta: 7 initialized @(8,0)
GPGPU-Sim uArch: core:  6, cta: 7 initialized @(8,0)
GPGPU-Sim uArch: core:  7, cta: 7 initialized @(8,0)
GPGPU-Sim uArch: core:  8, cta: 7 initialized @(8,0)
GPGPU-Sim uArch: core:  9, cta: 7 initialized @(8,0)
GPGPU-Sim uArch: core: 10, cta: 7 initialized @(8,0)
GPGPU-Sim uArch: core: 11, cta: 7 initialized @(8,0)
GPGPU-Sim uArch: core: 12, cta: 7 initialized @(8,0)
GPGPU-Sim uArch: core: 13, cta: 7 initialized @(8,0)
GPGPU-Sim uArch: core: 14, cta: 7 initialized @(8,0)
GPGPU-Sim uArch: core:  0, cta: 7 initialized @(8,0)
GPGPU-Sim uArch: cycles simulated: 500  inst.: 27960 (ipc=55.9) sim_rate=4660 (inst/sec) elapsed = 0:0:00:06 / Tue Mar 22 12:49:10 2016
GPGPU-Sim PTX: 100000 instructions simulated : ctaid=(4,4,0) tid=(9,9,0)
GPGPU-Sim uArch: cycles simulated: 1000  inst.: 129160 (ipc=129.2) sim_rate=14351 (inst/sec) elapsed = 0:0:00:09 / Tue Mar 22 12:49:13 2016
GPGPU-Sim PTX: 200000 instructions simulated : ctaid=(1,4,0) tid=(6,0,0)
GPGPU-Sim PTX: 300000 instructions simulated : ctaid=(1,0,0) tid=(8,2,0)
GPGPU-Sim PTX: 400000 instructions simulated : ctaid=(2,3,0) tid=(2,7,0)
GPGPU-Sim uArch: cycles simulated: 2500  inst.: 412364 (ipc=164.9) sim_rate=41236 (inst/sec) elapsed = 0:0:00:10 / Tue Mar 22 12:49:14 2016
GPGPU-Sim PTX: 500000 instructions simulated : ctaid=(0,4,0) tid=(4,0,0)
GPGPU-Sim PTX: 600000 instructions simulated : ctaid=(2,3,0) tid=(6,2,0)
GPGPU-Sim PTX: 700000 instructions simulated : ctaid=(0,6,0) tid=(1,1,0)
GPGPU-Sim uArch: cycles simulated: 3000  inst.: 784163 (ipc=261.4) sim_rate=71287 (inst/sec) elapsed = 0:0:00:11 / Tue Mar 22 12:49:15 2016
GPGPU-Sim PTX: 800000 instructions simulated : ctaid=(3,0,0) tid=(5,10,0)
GPGPU-Sim PTX: 900000 instructions simulated : ctaid=(4,6,0) tid=(9,3,0)
GPGPU-Sim PTX: 1000000 instructions simulated : ctaid=(1,0,0) tid=(11,7,0)
GPGPU-Sim PTX: 1100000 instructions simulated : ctaid=(1,0,0) tid=(9,2,0)
GPGPU-Sim PTX: 1200000 instructions simulated : ctaid=(2,7,0) tid=(5,9,0)
GPGPU-Sim PTX: 1300000 instructions simulated : ctaid=(1,3,0) tid=(0,4,0)
GPGPU-Sim PTX: 1400000 instructions simulated : ctaid=(1,2,0) tid=(8,10,0)
GPGPU-Sim PTX: 1500000 instructions simulated : ctaid=(4,2,0) tid=(2,11,0)
GPGPU-Sim uArch: cycles simulated: 4000  inst.: 1520485 (ipc=380.1) sim_rate=126707 (inst/sec) elapsed = 0:0:00:12 / Tue Mar 22 12:49:16 2016
GPGPU-Sim PTX: 1600000 instructions simulated : ctaid=(0,2,0) tid=(8,0,0)
GPGPU-Sim PTX: 1700000 instructions simulated : ctaid=(4,4,0) tid=(4,12,0)
GPGPU-Sim PTX: 1800000 instructions simulated : ctaid=(3,1,0) tid=(2,11,0)
GPGPU-Sim uArch: cycles simulated: 4500  inst.: 1886876 (ipc=419.3) sim_rate=145144 (inst/sec) elapsed = 0:0:00:13 / Tue Mar 22 12:49:17 2016
GPGPU-Sim PTX: 1900000 instructions simulated : ctaid=(5,4,0) tid=(12,3,0)
GPGPU-Sim PTX: 2000000 instructions simulated : ctaid=(3,1,0) tid=(6,3,0)
GPGPU-Sim PTX: 2100000 instructions simulated : ctaid=(3,5,0) tid=(2,0,0)
GPGPU-Sim PTX: 2200000 instructions simulated : ctaid=(0,2,0) tid=(2,2,0)
GPGPU-Sim PTX: 2300000 instructions simulated : ctaid=(1,7,0) tid=(6,0,0)
GPGPU-Sim PTX: 2400000 instructions simulated : ctaid=(4,4,0) tid=(3,5,0)
GPGPU-Sim PTX: 2500000 instructions simulated : ctaid=(0,7,0) tid=(4,5,0)
GPGPU-Sim uArch: cycles simulated: 5500  inst.: 2534567 (ipc=460.8) sim_rate=181040 (inst/sec) elapsed = 0:0:00:14 / Tue Mar 22 12:49:18 2016
GPGPU-Sim PTX: 2600000 instructions simulated : ctaid=(2,1,0) tid=(6,8,0)
GPGPU-Sim PTX: 2700000 instructions simulated : ctaid=(5,0,0) tid=(5,7,0)
GPGPU-Sim uArch: cycles simulated: 6000  inst.: 2705451 (ipc=450.9) sim_rate=180363 (inst/sec) elapsed = 0:0:00:15 / Tue Mar 22 12:49:19 2016
GPGPU-Sim PTX: 2800000 instructions simulated : ctaid=(4,3,0) tid=(7,9,0)
GPGPU-Sim PTX: 2900000 instructions simulated : ctaid=(2,9,0) tid=(10,5,0)
GPGPU-Sim uArch: Shader 13 finished CTA #0 (6311,0), 7 CTAs running
GPGPU-Sim uArch: core: 13, cta: 0 initialized @(6312,0)
GPGPU-Sim uArch: Shader 1 finished CTA #0 (6373,0), 7 CTAs running
GPGPU-Sim uArch: core:  1, cta: 0 initialized @(6374,0)
GPGPU-Sim uArch: Shader 2 finished CTA #1 (6394,0), 7 CTAs running
GPGPU-Sim uArch: core:  2, cta: 1 initialized @(6395,0)
GPGPU-Sim uArch: Shader 2 finished CTA #0 (6423,0), 7 CTAs running
GPGPU-Sim uArch: core:  2, cta: 0 initialized @(6424,0)
GPGPU-Sim uArch: Shader 7 finished CTA #0 (6473,0), 7 CTAs running
GPGPU-Sim uArch: core:  7, cta: 0 initialized @(6474,0)
GPGPU-Sim uArch: Shader 1 finished CTA #1 (6588,0), 7 CTAs running
GPGPU-Sim uArch: core:  1, cta: 1 initialized @(6589,0)
GPGPU-Sim uArch: Shader 14 finished CTA #0 (6603,0), 7 CTAs running
GPGPU-Sim uArch: core: 14, cta: 0 initialized @(6604,0)
GPGPU-Sim PTX: 3000000 instructions simulated : ctaid=(3,7,0) tid=(8,12,0)
GPGPU-Sim uArch: Shader 5 finished CTA #0 (6626,0), 7 CTAs running
GPGPU-Sim uArch: core:  5, cta: 0 initialized @(6627,0)
GPGPU-Sim uArch: Shader 0 finished CTA #0 (6702,0), 7 CTAs running
GPGPU-Sim uArch: core:  0, cta: 0 initialized @(6703,0)
GPGPU-Sim uArch: Shader 9 finished CTA #0 (6745,0), 7 CTAs running
GPGPU-Sim uArch: Shader 10 finished CTA #0 (6745,0), 7 CTAs running
GPGPU-Sim uArch: core:  9, cta: 0 initialized @(6746,0)
GPGPU-Sim uArch: core: 10, cta: 0 initialized @(6746,0)
GPGPU-Sim uArch: Shader 12 finished CTA #0 (6832,0), 7 CTAs running
GPGPU-Sim uArch: core: 12, cta: 0 initialized @(6833,0)
GPGPU-Sim uArch: Shader 8 finished CTA #0 (6836,0), 7 CTAs running
GPGPU-Sim uArch: core:  8, cta: 0 initialized @(6837,0)
GPGPU-Sim uArch: Shader 3 finished CTA #0 (6839,0), 7 CTAs running
GPGPU-Sim uArch: core:  3, cta: 0 initialized @(6840,0)
GPGPU-Sim uArch: Shader 11 finished CTA #0 (6841,0), 7 CTAs running
GPGPU-Sim uArch: core: 11, cta: 0 initialized @(6842,0)
GPGPU-Sim uArch: Shader 6 finished CTA #1 (6845,0), 7 CTAs running
GPGPU-Sim uArch: core:  6, cta: 1 initialized @(6846,0)
GPGPU-Sim uArch: Shader 4 finished CTA #1 (6854,0), 7 CTAs running
GPGPU-Sim uArch: core:  4, cta: 1 initialized @(6855,0)
GPGPU-Sim PTX: 3100000 instructions simulated : ctaid=(5,9,0) tid=(8,4,0)
GPGPU-Sim uArch: Shader 6 finished CTA #0 (6897,0), 7 CTAs running
GPGPU-Sim uArch: core:  6, cta: 0 initialized @(6898,0)
GPGPU-Sim uArch: Shader 4 finished CTA #0 (6899,0), 7 CTAs running
GPGPU-Sim uArch: core:  4, cta: 0 initialized @(6900,0)
GPGPU-Sim uArch: Shader 3 finished CTA #1 (6903,0), 7 CTAs running
GPGPU-Sim uArch: core:  3, cta: 1 initialized @(6904,0)
GPGPU-Sim uArch: Shader 12 finished CTA #1 (6905,0), 7 CTAs running
GPGPU-Sim uArch: core: 12, cta: 1 initialized @(6906,0)
GPGPU-Sim uArch: Shader 13 finished CTA #1 (6931,0), 7 CTAs running
GPGPU-Sim uArch: core: 13, cta: 1 initialized @(6932,0)
GPGPU-Sim uArch: Shader 7 finished CTA #1 (6941,0), 7 CTAs running
GPGPU-Sim uArch: core:  7, cta: 1 initialized @(6942,0)
GPGPU-Sim uArch: Shader 5 finished CTA #1 (6962,0), 7 CTAs running
GPGPU-Sim uArch: core:  5, cta: 1 initialized @(6963,0)
GPGPU-Sim uArch: Shader 11 finished CTA #1 (6992,0), 7 CTAs running
GPGPU-Sim uArch: core: 11, cta: 1 initialized @(6993,0)
GPGPU-Sim uArch: Shader 9 finished CTA #1 (6997,0), 7 CTAs running
GPGPU-Sim uArch: core:  9, cta: 1 initialized @(6998,0)
GPGPU-Sim uArch: cycles simulated: 7000  inst.: 3133912 (ipc=447.7) sim_rate=195869 (inst/sec) elapsed = 0:0:00:16 / Tue Mar 22 12:49:20 2016
GPGPU-Sim PTX: 3200000 instructions simulated : ctaid=(4,6,0) tid=(7,11,0)
GPGPU-Sim uArch: Shader 8 finished CTA #1 (7094,0), 7 CTAs running
GPGPU-Sim uArch: core:  8, cta: 1 initialized @(7095,0)
GPGPU-Sim uArch: Shader 0 finished CTA #1 (7134,0), 7 CTAs running
GPGPU-Sim uArch: core:  0, cta: 1 initialized @(7135,0)
GPGPU-Sim uArch: Shader 14 finished CTA #1 (7208,0), 7 CTAs running
GPGPU-Sim uArch: core: 14, cta: 1 initialized @(7209,0)
GPGPU-Sim uArch: Shader 10 finished CTA #1 (7210,0), 7 CTAs running
GPGPU-Sim uArch: core: 10, cta: 1 initialized @(7211,0)
GPGPU-Sim PTX: 3300000 instructions simulated : ctaid=(0,10,0) tid=(11,11,0)
GPGPU-Sim PTX: 3400000 instructions simulated : ctaid=(4,7,0) tid=(5,11,0)
GPGPU-Sim PTX: 3500000 instructions simulated : ctaid=(5,11,0) tid=(10,6,0)
GPGPU-Sim PTX: 3600000 instructions simulated : ctaid=(3,6,0) tid=(11,12,0)
GPGPU-Sim PTX: 3700000 instructions simulated : ctaid=(3,9,0) tid=(9,8,0)
GPGPU-Sim PTX: 3800000 instructions simulated : ctaid=(0,10,0) tid=(5,1,0)
GPGPU-Sim uArch: cycles simulated: 8000  inst.: 3824272 (ipc=478.0) sim_rate=224957 (inst/sec) elapsed = 0:0:00:17 / Tue Mar 22 12:49:21 2016
GPGPU-Sim PTX: 3900000 instructions simulated : ctaid=(5,10,0) tid=(10,6,0)
GPGPU-Sim PTX: 4000000 instructions simulated : ctaid=(4,11,0) tid=(7,12,0)
GPGPU-Sim PTX: 4100000 instructions simulated : ctaid=(3,6,0) tid=(7,12,0)
GPGPU-Sim uArch: cycles simulated: 8500  inst.: 4181354 (ipc=491.9) sim_rate=232297 (inst/sec) elapsed = 0:0:00:18 / Tue Mar 22 12:49:22 2016
GPGPU-Sim PTX: 4200000 instructions simulated : ctaid=(0,10,0) tid=(5,2,0)
GPGPU-Sim PTX: 4300000 instructions simulated : ctaid=(0,8,0) tid=(6,7,0)
GPGPU-Sim PTX: 4400000 instructions simulated : ctaid=(2,11,0) tid=(7,2,0)
GPGPU-Sim PTX: 4500000 instructions simulated : ctaid=(2,9,0) tid=(11,8,0)
GPGPU-Sim PTX: 4600000 instructions simulated : ctaid=(3,10,0) tid=(6,3,0)
GPGPU-Sim PTX: 4700000 instructions simulated : ctaid=(2,11,0) tid=(7,6,0)
GPGPU-Sim PTX: 4800000 instructions simulated : ctaid=(0,12,0) tid=(11,0,0)
GPGPU-Sim uArch: cycles simulated: 9500  inst.: 4877549 (ipc=513.4) sim_rate=256713 (inst/sec) elapsed = 0:0:00:19 / Tue Mar 22 12:49:23 2016
GPGPU-Sim PTX: 4900000 instructions simulated : ctaid=(3,10,0) tid=(2,4,0)
GPGPU-Sim PTX: 5000000 instructions simulated : ctaid=(4,11,0) tid=(8,5,0)
GPGPU-Sim PTX: 5100000 instructions simulated : ctaid=(5,11,0) tid=(7,7,0)
GPGPU-Sim PTX: 5200000 instructions simulated : ctaid=(4,13,0) tid=(8,2,0)
GPGPU-Sim uArch: cycles simulated: 10000  inst.: 5193897 (ipc=519.4) sim_rate=259694 (inst/sec) elapsed = 0:0:00:20 / Tue Mar 22 12:49:24 2016
GPGPU-Sim uArch: Shader 9 finished CTA #2 (10111,0), 7 CTAs running
GPGPU-Sim uArch: core:  9, cta: 2 initialized @(10112,0)
GPGPU-Sim PTX: 5300000 instructions simulated : ctaid=(3,12,0) tid=(6,7,0)
GPGPU-Sim uArch: Shader 8 finished CTA #2 (10170,0), 7 CTAs running
GPGPU-Sim uArch: core:  8, cta: 2 initialized @(10171,0)
GPGPU-Sim uArch: Shader 12 finished CTA #2 (10183,0), 7 CTAs running
GPGPU-Sim uArch: core: 12, cta: 2 initialized @(10184,0)
GPGPU-Sim PTX: 5400000 instructions simulated : ctaid=(4,14,0) tid=(0,0,0)
GPGPU-Sim uArch: Shader 11 finished CTA #2 (10334,0), 7 CTAs running
GPGPU-Sim uArch: core: 11, cta: 2 initialized @(10335,0)
GPGPU-Sim uArch: Shader 14 finished CTA #2 (10344,0), 7 CTAs running
GPGPU-Sim uArch: core: 14, cta: 2 initialized @(10345,0)
GPGPU-Sim uArch: Shader 7 finished CTA #2 (10373,0), 7 CTAs running
GPGPU-Sim uArch: core:  7, cta: 2 initialized @(10374,0)
GPGPU-Sim uArch: Shader 10 finished CTA #2 (10397,0), 7 CTAs running
GPGPU-Sim uArch: core: 10, cta: 2 initialized @(10398,0)
GPGPU-Sim PTX: 5500000 instructions simulated : ctaid=(3,16,0) tid=(8,6,0)
GPGPU-Sim uArch: Shader 5 finished CTA #2 (10478,0), 7 CTAs running
GPGPU-Sim uArch: core:  5, cta: 2 initialized @(10479,0)
GPGPU-Sim uArch: Shader 1 finished CTA #2 (10483,0), 7 CTAs running
GPGPU-Sim uArch: core:  1, cta: 2 initialized @(10484,0)
GPGPU-Sim uArch: cycles simulated: 10500  inst.: 5501981 (ipc=524.0) sim_rate=261999 (inst/sec) elapsed = 0:0:00:21 / Tue Mar 22 12:49:25 2016
GPGPU-Sim uArch: Shader 9 finished CTA #3 (10528,0), 7 CTAs running
GPGPU-Sim uArch: core:  9, cta: 3 initialized @(10529,0)
GPGPU-Sim uArch: Shader 2 finished CTA #2 (10530,0), 7 CTAs running
GPGPU-Sim uArch: core:  2, cta: 2 initialized @(10531,0)
GPGPU-Sim uArch: Shader 5 finished CTA #3 (10532,0), 7 CTAs running
GPGPU-Sim uArch: core:  5, cta: 3 initialized @(10533,0)
GPGPU-Sim uArch: Shader 0 finished CTA #2 (10551,0), 7 CTAs running
GPGPU-Sim uArch: core:  0, cta: 2 initialized @(10552,0)
GPGPU-Sim uArch: Shader 4 finished CTA #2 (10552,0), 7 CTAs running
GPGPU-Sim uArch: core:  4, cta: 2 initialized @(10553,0)
GPGPU-Sim uArch: Shader 7 finished CTA #3 (10558,0), 7 CTAs running
GPGPU-Sim uArch: core:  7, cta: 3 initialized @(10559,0)
GPGPU-Sim uArch: Shader 13 finished CTA #2 (10562,0), 7 CTAs running
GPGPU-Sim uArch: core: 13, cta: 2 initialized @(10563,0)
GPGPU-Sim uArch: Shader 13 finished CTA #3 (10581,0), 7 CTAs running
GPGPU-Sim uArch: core: 13, cta: 3 initialized @(10582,0)
GPGPU-Sim uArch: Shader 3 finished CTA #2 (10593,0), 7 CTAs running
GPGPU-Sim uArch: core:  3, cta: 2 initialized @(10594,0)
GPGPU-Sim PTX: 5600000 instructions simulated : ctaid=(4,15,0) tid=(12,8,0)
GPGPU-Sim uArch: Shader 2 finished CTA #3 (10616,0), 7 CTAs running
GPGPU-Sim uArch: Shader 0 finished CTA #3 (10622,0), 7 CTAs running
GPGPU-Sim uArch: Shader 6 finished CTA #2 (10639,0), 7 CTAs running
GPGPU-Sim uArch: Shader 4 finished CTA #3 (10656,0), 7 CTAs running
GPGPU-Sim uArch: Shader 10 finished CTA #3 (10668,0), 7 CTAs running
GPGPU-Sim uArch: Shader 14 finished CTA #3 (10677,0), 7 CTAs running
GPGPU-Sim uArch: Shader 3 finished CTA #3 (10698,0), 7 CTAs running
GPGPU-Sim uArch: Shader 1 finished CTA #3 (10707,0), 7 CTAs running
GPGPU-Sim uArch: Shader 6 finished CTA #3 (10735,0), 6 CTAs running
GPGPU-Sim uArch: Shader 8 finished CTA #3 (10737,0), 7 CTAs running
GPGPU-Sim PTX: 5700000 instructions simulated : ctaid=(3,16,0) tid=(5,2,0)
GPGPU-Sim uArch: Shader 12 finished CTA #3 (10821,0), 7 CTAs running
GPGPU-Sim uArch: Shader 11 finished CTA #3 (10849,0), 7 CTAs running
GPGPU-Sim PTX: 5800000 instructions simulated : ctaid=(2,12,0) tid=(5,12,0)
GPGPU-Sim uArch: cycles simulated: 11000  inst.: 5825751 (ipc=529.6) sim_rate=264806 (inst/sec) elapsed = 0:0:00:22 / Tue Mar 22 12:49:26 2016
GPGPU-Sim PTX: 5900000 instructions simulated : ctaid=(4,12,0) tid=(7,3,0)
GPGPU-Sim PTX: 6000000 instructions simulated : ctaid=(0,15,0) tid=(1,2,0)
GPGPU-Sim PTX: 6100000 instructions simulated : ctaid=(1,17,0) tid=(11,12,0)
GPGPU-Sim PTX: 6200000 instructions simulated : ctaid=(4,16,0) tid=(4,5,0)
GPGPU-Sim uArch: Shader 10 finished CTA #4 (11547,0), 6 CTAs running
GPGPU-Sim uArch: Shader 7 finished CTA #4 (11574,0), 7 CTAs running
GPGPU-Sim uArch: Shader 8 finished CTA #4 (11604,0), 6 CTAs running
GPGPU-Sim uArch: Shader 12 finished CTA #4 (11609,0), 6 CTAs running
GPGPU-Sim uArch: Shader 9 finished CTA #4 (11614,0), 7 CTAs running
GPGPU-Sim uArch: Shader 13 finished CTA #4 (11642,0), 7 CTAs running
GPGPU-Sim PTX: 6300000 instructions simulated : ctaid=(5,14,0) tid=(0,5,0)
GPGPU-Sim uArch: Shader 6 finished CTA #4 (11680,0), 5 CTAs running
GPGPU-Sim uArch: Shader 0 finished CTA #4 (11700,0), 6 CTAs running
GPGPU-Sim uArch: Shader 2 finished CTA #4 (11702,0), 6 CTAs running
GPGPU-Sim uArch: Shader 14 finished CTA #4 (11706,0), 6 CTAs running
GPGPU-Sim uArch: Shader 1 finished CTA #4 (11746,0), 6 CTAs running
GPGPU-Sim uArch: Shader 3 finished CTA #4 (11772,0), 6 CTAs running
GPGPU-Sim uArch: Shader 5 finished CTA #4 (11778,0), 7 CTAs running
GPGPU-Sim PTX: 6400000 instructions simulated : ctaid=(5,15,0) tid=(9,12,0)
GPGPU-Sim uArch: Shader 4 finished CTA #4 (11803,0), 6 CTAs running
GPGPU-Sim uArch: Shader 11 finished CTA #4 (11818,0), 6 CTAs running
GPGPU-Sim PTX: 6500000 instructions simulated : ctaid=(5,19,0) tid=(10,4,0)
GPGPU-Sim uArch: cycles simulated: 12000  inst.: 6527407 (ipc=544.0) sim_rate=283800 (inst/sec) elapsed = 0:0:00:23 / Tue Mar 22 12:49:27 2016
GPGPU-Sim PTX: 6600000 instructions simulated : ctaid=(4,16,0) tid=(9,7,0)
GPGPU-Sim PTX: 6700000 instructions simulated : ctaid=(2,17,0) tid=(5,8,0)
GPGPU-Sim PTX: 6800000 instructions simulated : ctaid=(3,17,0) tid=(0,9,0)
GPGPU-Sim PTX: 6900000 instructions simulated : ctaid=(5,12,0) tid=(3,7,0)
GPGPU-Sim uArch: cycles simulated: 12500  inst.: 6888484 (ipc=551.1) sim_rate=287020 (inst/sec) elapsed = 0:0:00:24 / Tue Mar 22 12:49:28 2016
GPGPU-Sim PTX: 7000000 instructions simulated : ctaid=(5,17,0) tid=(12,7,0)
GPGPU-Sim PTX: 7100000 instructions simulated : ctaid=(2,14,0) tid=(1,11,0)
GPGPU-Sim PTX: 7200000 instructions simulated : ctaid=(1,16,0) tid=(9,11,0)
GPGPU-Sim uArch: cycles simulated: 13000  inst.: 7238990 (ipc=556.8) sim_rate=289559 (inst/sec) elapsed = 0:0:00:25 / Tue Mar 22 12:49:29 2016
GPGPU-Sim PTX: 7300000 instructions simulated : ctaid=(5,18,0) tid=(4,1,0)
GPGPU-Sim PTX: 7400000 instructions simulated : ctaid=(4,15,0) tid=(0,7,0)
GPGPU-Sim PTX: 7500000 instructions simulated : ctaid=(5,19,0) tid=(2,4,0)
GPGPU-Sim PTX: 7600000 instructions simulated : ctaid=(3,15,0) tid=(4,8,0)
GPGPU-Sim PTX: 7700000 instructions simulated : ctaid=(5,19,0) tid=(0,2,0)
GPGPU-Sim PTX: 7800000 instructions simulated : ctaid=(5,19,0) tid=(5,0,0)
GPGPU-Sim PTX: 7900000 instructions simulated : ctaid=(2,19,0) tid=(12,7,0)
GPGPU-Sim uArch: Shader 5 finished CTA #5 (13964,0), 6 CTAs running
GPGPU-Sim uArch: Shader 9 finished CTA #5 (13996,0), 6 CTAs running
GPGPU-Sim uArch: cycles simulated: 14000  inst.: 7903586 (ipc=564.5) sim_rate=303984 (inst/sec) elapsed = 0:0:00:26 / Tue Mar 22 12:49:30 2016
GPGPU-Sim PTX: 8000000 instructions simulated : ctaid=(3,16,0) tid=(3,9,0)
GPGPU-Sim uArch: Shader 8 finished CTA #5 (14106,0), 5 CTAs running
GPGPU-Sim uArch: Shader 1 finished CTA #5 (14155,0), 5 CTAs running
GPGPU-Sim uArch: Shader 6 finished CTA #5 (14158,0), 4 CTAs running
GPGPU-Sim uArch: Shader 2 finished CTA #5 (14176,0), 5 CTAs running
GPGPU-Sim uArch: Shader 7 finished CTA #5 (14212,0), 6 CTAs running
GPGPU-Sim PTX: 8100000 instructions simulated : ctaid=(2,21,0) tid=(8,4,0)
GPGPU-Sim uArch: Shader 4 finished CTA #5 (14283,0), 5 CTAs running
GPGPU-Sim uArch: Shader 3 finished CTA #5 (14340,0), 5 CTAs running
GPGPU-Sim PTX: 8200000 instructions simulated : ctaid=(3,17,0) tid=(3,11,0)
GPGPU-Sim uArch: cycles simulated: 14500  inst.: 8221826 (ipc=567.0) sim_rate=304512 (inst/sec) elapsed = 0:0:00:27 / Tue Mar 22 12:49:31 2016
GPGPU-Sim PTX: 8300000 instructions simulated : ctaid=(3,18,0) tid=(0,5,0)
GPGPU-Sim uArch: Shader 0 finished CTA #5 (14604,0), 5 CTAs running
GPGPU-Sim uArch: Shader 10 finished CTA #5 (14609,0), 5 CTAs running
GPGPU-Sim uArch: Shader 12 finished CTA #5 (14647,0), 5 CTAs running
GPGPU-Sim uArch: Shader 11 finished CTA #5 (14665,0), 5 CTAs running
GPGPU-Sim PTX: 8400000 instructions simulated : ctaid=(3,18,0) tid=(9,9,0)
GPGPU-Sim uArch: Shader 13 finished CTA #5 (14745,0), 6 CTAs running
GPGPU-Sim uArch: Shader 14 finished CTA #5 (14762,0), 5 CTAs running
GPGPU-Sim PTX: 8500000 instructions simulated : ctaid=(2,21,0) tid=(10,2,0)
GPGPU-Sim uArch: Shader 7 finished CTA #6 (14900,0), 5 CTAs running
GPGPU-Sim uArch: Shader 9 finished CTA #6 (14959,0), 5 CTAs running
GPGPU-Sim uArch: Shader 2 finished CTA #6 (14970,0), 4 CTAs running
GPGPU-Sim uArch: Shader 11 finished CTA #6 (14988,0), 4 CTAs running
GPGPU-Sim uArch: Shader 3 finished CTA #6 (14989,0), 4 CTAs running
GPGPU-Sim uArch: Shader 1 finished CTA #6 (14994,0), 4 CTAs running
GPGPU-Sim uArch: Shader 12 finished CTA #6 (14997,0), 4 CTAs running
GPGPU-Sim uArch: Shader 10 finished CTA #6 (14998,0), 4 CTAs running
GPGPU-Sim uArch: cycles simulated: 15000  inst.: 8563004 (ipc=570.9) sim_rate=305821 (inst/sec) elapsed = 0:0:00:28 / Tue Mar 22 12:49:32 2016
GPGPU-Sim PTX: 8600000 instructions simulated : ctaid=(2,18,0) tid=(8,2,0)
GPGPU-Sim uArch: Shader 4 finished CTA #6 (15072,0), 4 CTAs running
GPGPU-Sim uArch: Shader 6 finished CTA #6 (15126,0), 3 CTAs running
GPGPU-Sim uArch: Shader 8 finished CTA #6 (15134,0), 4 CTAs running
GPGPU-Sim uArch: Shader 5 finished CTA #6 (15153,0), 5 CTAs running
GPGPU-Sim PTX: 8700000 instructions simulated : ctaid=(5,23,0) tid=(9,3,0)
GPGPU-Sim PTX: 8800000 instructions simulated : ctaid=(1,24,0) tid=(1,2,0)
GPGPU-Sim PTX: 8900000 instructions simulated : ctaid=(5,24,0) tid=(8,7,0)
GPGPU-Sim uArch: Shader 0 finished CTA #6 (15523,0), 4 CTAs running
GPGPU-Sim uArch: Shader 13 finished CTA #6 (15580,0), 5 CTAs running
GPGPU-Sim PTX: 9000000 instructions simulated : ctaid=(0,23,0) tid=(12,12,0)
GPGPU-Sim uArch: Shader 14 finished CTA #6 (15594,0), 4 CTAs running
GPGPU-Sim PTX: 9100000 instructions simulated : ctaid=(3,25,0) tid=(6,0,0)
GPGPU-Sim PTX: 9200000 instructions simulated : ctaid=(3,20,0) tid=(12,3,0)
GPGPU-Sim uArch: cycles simulated: 16000  inst.: 9258942 (ipc=578.7) sim_rate=319273 (inst/sec) elapsed = 0:0:00:29 / Tue Mar 22 12:49:33 2016
GPGPU-Sim PTX: 9300000 instructions simulated : ctaid=(0,21,0) tid=(9,11,0)
GPGPU-Sim PTX: 9400000 instructions simulated : ctaid=(0,23,0) tid=(8,7,0)
GPGPU-Sim PTX: 9500000 instructions simulated : ctaid=(0,21,0) tid=(2,5,0)
GPGPU-Sim uArch: Shader 10 finished CTA #7 (16435,0), 3 CTAs running
GPGPU-Sim PTX: 9600000 instructions simulated : ctaid=(1,27,0) tid=(3,2,0)
GPGPU-Sim uArch: cycles simulated: 16500  inst.: 9607976 (ipc=582.3) sim_rate=320265 (inst/sec) elapsed = 0:0:00:30 / Tue Mar 22 12:49:34 2016
GPGPU-Sim PTX: 9700000 instructions simulated : ctaid=(5,24,0) tid=(9,1,0)
GPGPU-Sim uArch: Shader 11 finished CTA #7 (16621,0), 3 CTAs running
GPGPU-Sim uArch: Shader 13 finished CTA #7 (16642,0), 4 CTAs running
GPGPU-Sim uArch: Shader 5 finished CTA #7 (16679,0), 4 CTAs running
GPGPU-Sim uArch: Shader 14 finished CTA #7 (16715,0), 3 CTAs running
GPGPU-Sim PTX: 9800000 instructions simulated : ctaid=(1,24,0) tid=(6,4,0)
GPGPU-Sim uArch: Shader 7 finished CTA #7 (16733,0), 4 CTAs running
GPGPU-Sim uArch: Shader 0 finished CTA #7 (16750,0), 3 CTAs running
GPGPU-Sim uArch: Shader 12 finished CTA #7 (16752,0), 3 CTAs running
GPGPU-Sim uArch: Shader 9 finished CTA #7 (16761,0), 4 CTAs running
GPGPU-Sim uArch: Shader 4 finished CTA #7 (16790,0), 3 CTAs running
GPGPU-Sim uArch: Shader 2 finished CTA #7 (16801,0), 3 CTAs running
GPGPU-Sim PTX: 9900000 instructions simulated : ctaid=(5,23,0) tid=(5,11,0)
GPGPU-Sim uArch: Shader 1 finished CTA #7 (16883,0), 3 CTAs running
GPGPU-Sim uArch: Shader 6 finished CTA #7 (16910,0), 2 CTAs running
GPGPU-Sim uArch: Shader 8 finished CTA #7 (16949,0), 3 CTAs running
GPGPU-Sim uArch: cycles simulated: 17000  inst.: 9960960 (ipc=585.9) sim_rate=321321 (inst/sec) elapsed = 0:0:00:31 / Tue Mar 22 12:49:35 2016
GPGPU-Sim PTX: 10000000 instructions simulated : ctaid=(2,20,0) tid=(11,6,0)
GPGPU-Sim uArch: Shader 3 finished CTA #7 (17055,0), 3 CTAs running
GPGPU-Sim PTX: 10100000 instructions simulated : ctaid=(4,25,0) tid=(3,3,0)
GPGPU-Sim PTX: 10200000 instructions simulated : ctaid=(3,22,0) tid=(10,12,0)
GPGPU-Sim PTX: 10300000 instructions simulated : ctaid=(5,24,0) tid=(12,5,0)
GPGPU-Sim PTX: 10400000 instructions simulated : ctaid=(2,23,0) tid=(2,7,0)
GPGPU-Sim PTX: 10500000 instructions simulated : ctaid=(0,26,0) tid=(9,11,0)
GPGPU-Sim PTX: 10600000 instructions simulated : ctaid=(3,25,0) tid=(6,8,0)
GPGPU-Sim uArch: cycles simulated: 18000  inst.: 10611129 (ipc=589.5) sim_rate=331597 (inst/sec) elapsed = 0:0:00:32 / Tue Mar 22 12:49:36 2016
GPGPU-Sim PTX: 10700000 instructions simulated : ctaid=(1,21,0) tid=(11,12,0)
GPGPU-Sim PTX: 10800000 instructions simulated : ctaid=(0,26,0) tid=(5,2,0)
GPGPU-Sim uArch: Shader 2 finished CTA #1 (18288,0), 2 CTAs running
GPGPU-Sim uArch: Shader 7 finished CTA #0 (18314,0), 3 CTAs running
GPGPU-Sim uArch: Shader 1 finished CTA #0 (18330,0), 2 CTAs running
GPGPU-Sim uArch: Shader 3 finished CTA #0 (18337,0), 2 CTAs running
GPGPU-Sim uArch: Shader 6 finished CTA #1 (18366,0), 1 CTAs running
GPGPU-Sim PTX: 10900000 instructions simulated : ctaid=(5,20,0) tid=(6,10,0)
GPGPU-Sim uArch: Shader 11 finished CTA #0 (18466,0), 2 CTAs running
GPGPU-Sim uArch: Shader 4 finished CTA #1 (18469,0), 2 CTAs running
GPGPU-Sim uArch: Shader 8 finished CTA #0 (18469,0), 2 CTAs running
GPGPU-Sim uArch: cycles simulated: 18500  inst.: 10888031 (ipc=588.5) sim_rate=329940 (inst/sec) elapsed = 0:0:00:33 / Tue Mar 22 12:49:37 2016
GPGPU-Sim uArch: Shader 0 finished CTA #0 (18637,0), 2 CTAs running
GPGPU-Sim PTX: 11000000 instructions simulated : ctaid=(4,26,0) tid=(12,1,0)
GPGPU-Sim uArch: Shader 12 finished CTA #0 (18642,0), 2 CTAs running
GPGPU-Sim uArch: Shader 13 finished CTA #0 (18649,0), 3 CTAs running
GPGPU-Sim uArch: Shader 14 finished CTA #0 (18660,0), 2 CTAs running
GPGPU-Sim uArch: Shader 9 finished CTA #0 (18669,0), 3 CTAs running
GPGPU-Sim uArch: Shader 5 finished CTA #0 (18688,0), 3 CTAs running
GPGPU-Sim uArch: Shader 10 finished CTA #0 (18738,0), 2 CTAs running
GPGPU-Sim PTX: 11100000 instructions simulated : ctaid=(1,24,0) tid=(4,12,0)
GPGPU-Sim uArch: Shader 6 finished CTA #0 (18917,0), 0 CTAs running
GPGPU-Sim uArch: Shader 6 empty (release kernel 1 '_Z17executeFirstLayerPfS_S_').
GPGPU-Sim uArch: Shader 1 finished CTA #1 (18963,0), 1 CTAs running
GPGPU-Sim uArch: Shader 2 finished CTA #0 (19059,0), 1 CTAs running
GPGPU-Sim PTX: 11200000 instructions simulated : ctaid=(5,26,0) tid=(5,2,0)
GPGPU-Sim PTX: 11300000 instructions simulated : ctaid=(4,25,0) tid=(6,2,0)
GPGPU-Sim uArch: Shader 3 finished CTA #1 (19360,0), 1 CTAs running
GPGPU-Sim uArch: Shader 5 finished CTA #1 (19420,0), 2 CTAs running
GPGPU-Sim uArch: Shader 11 finished CTA #1 (19433,0), 1 CTAs running
GPGPU-Sim uArch: Shader 4 finished CTA #0 (19442,0), 1 CTAs running
GPGPU-Sim uArch: Shader 12 finished CTA #1 (19453,0), 1 CTAs running
GPGPU-Sim uArch: Shader 13 finished CTA #1 (19474,0), 2 CTAs running
GPGPU-Sim uArch: cycles simulated: 19500  inst.: 11325155 (ipc=580.8) sim_rate=333092 (inst/sec) elapsed = 0:0:00:34 / Tue Mar 22 12:49:38 2016
GPGPU-Sim uArch: Shader 7 finished CTA #1 (19529,0), 2 CTAs running
GPGPU-Sim uArch: Shader 9 finished CTA #1 (19531,0), 2 CTAs running
GPGPU-Sim uArch: Shader 14 finished CTA #1 (19566,0), 1 CTAs running
GPGPU-Sim PTX: 11400000 instructions simulated : ctaid=(1,27,0) tid=(7,11,0)
GPGPU-Sim uArch: Shader 8 finished CTA #1 (19624,0), 1 CTAs running
GPGPU-Sim uArch: Shader 10 finished CTA #1 (19672,0), 1 CTAs running
GPGPU-Sim uArch: Shader 0 finished CTA #1 (19796,0), 1 CTAs running
GPGPU-Sim PTX: 11500000 instructions simulated : ctaid=(3,26,0) tid=(2,0,0)
GPGPU-Sim PTX: 11600000 instructions simulated : ctaid=(2,26,0) tid=(8,12,0)
GPGPU-Sim uArch: cycles simulated: 21000  inst.: 11651517 (ipc=554.8) sim_rate=332900 (inst/sec) elapsed = 0:0:00:35 / Tue Mar 22 12:49:39 2016
GPGPU-Sim uArch: Shader 2 finished CTA #2 (21039,0), 0 CTAs running
GPGPU-Sim uArch: Shader 2 empty (release kernel 1 '_Z17executeFirstLayerPfS_S_').
GPGPU-Sim uArch: Shader 1 finished CTA #2 (21047,0), 0 CTAs running
GPGPU-Sim uArch: Shader 1 empty (release kernel 1 '_Z17executeFirstLayerPfS_S_').
GPGPU-Sim uArch: Shader 10 finished CTA #2 (21052,0), 0 CTAs running
GPGPU-Sim uArch: Shader 10 empty (release kernel 1 '_Z17executeFirstLayerPfS_S_').
GPGPU-Sim PTX: 11700000 instructions simulated : ctaid=(3,26,0) tid=(12,10,0)
GPGPU-Sim uArch: Shader 3 finished CTA #2 (21165,0), 0 CTAs running
GPGPU-Sim uArch: Shader 3 empty (release kernel 1 '_Z17executeFirstLayerPfS_S_').
GPGPU-Sim uArch: Shader 0 finished CTA #2 (21175,0), 0 CTAs running
GPGPU-Sim uArch: Shader 0 empty (release kernel 1 '_Z17executeFirstLayerPfS_S_').
GPGPU-Sim uArch: Shader 4 finished CTA #2 (21179,0), 0 CTAs running
GPGPU-Sim uArch: Shader 4 empty (release kernel 1 '_Z17executeFirstLayerPfS_S_').
GPGPU-Sim uArch: Shader 5 finished CTA #2 (21220,0), 1 CTAs running
GPGPU-Sim uArch: Shader 13 finished CTA #2 (21378,0), 1 CTAs running
GPGPU-Sim uArch: Shader 9 finished CTA #2 (21425,0), 1 CTAs running
GPGPU-Sim uArch: Shader 8 finished CTA #2 (21447,0), 0 CTAs running
GPGPU-Sim uArch: Shader 8 empty (release kernel 1 '_Z17executeFirstLayerPfS_S_').
GPGPU-Sim uArch: Shader 11 finished CTA #2 (21453,0), 0 CTAs running
GPGPU-Sim uArch: Shader 11 empty (release kernel 1 '_Z17executeFirstLayerPfS_S_').
GPGPU-Sim uArch: Shader 12 finished CTA #2 (21462,0), 0 CTAs running
GPGPU-Sim uArch: Shader 12 empty (release kernel 1 '_Z17executeFirstLayerPfS_S_').
GPGPU-Sim uArch: Shader 7 finished CTA #2 (21543,0), 1 CTAs running
GPGPU-Sim uArch: Shader 14 finished CTA #2 (21561,0), 0 CTAs running
GPGPU-Sim uArch: Shader 14 empty (release kernel 1 '_Z17executeFirstLayerPfS_S_').
GPGPU-Sim uArch: Shader 7 finished CTA #3 (21990,0), 0 CTAs running
GPGPU-Sim uArch: Shader 7 empty (release kernel 1 '_Z17executeFirstLayerPfS_S_').
GPGPU-Sim uArch: Shader 13 finished CTA #3 (22059,0), 0 CTAs running
GPGPU-Sim uArch: Shader 13 empty (release kernel 1 '_Z17executeFirstLayerPfS_S_').
GPGPU-Sim uArch: Shader 5 finished CTA #3 (22084,0), 0 CTAs running
GPGPU-Sim uArch: Shader 5 empty (release kernel 1 '_Z17executeFirstLayerPfS_S_').
GPGPU-Sim uArch: Shader 9 finished CTA #3 (22219,0), 0 CTAs running
GPGPU-Sim uArch: Shader 9 empty (release kernel 1 '_Z17executeFirstLayerPfS_S_').
GPGPU-Sim uArch: GPU detected kernel '_Z17executeFirstLayerPfS_S_' finished on shader 9.

GPGPU-Sim PTX: cudaLaunch for 0x0x40275f (mode=performance simulation) on stream 0
GPGPU-Sim PTX: pushing kernel '_Z18executeSecondLayerPfS_S_' to stream 0, gridDim= (50,28,1) blockDim = (5,5,1) 
kernel_name = _Z17executeFirstLayerPfS_S_ 
kernel_launch_uid = 1 
gpu_sim_cycle = 22220
gpu_sim_insn = 11694074
gpu_ipc =     526.2859
gpu_tot_sim_cycle = 22220
gpu_tot_sim_insn = 11694074
gpu_tot_ipc =     526.2859
gpu_tot_issued_cta = 168
gpu_stall_dramfull = 11230
gpu_stall_icnt2sh    = 16311
gpu_total_sim_rate=334116

========= Core cache stats =========
L1I_cache:
	L1I_total_cache_accesses = 243880
	L1I_total_cache_misses = 1238
	L1I_total_cache_miss_rate = 0.0051
	L1I_total_cache_pending_hits = 0
	L1I_total_cache_reservation_fails = 4140
L1D_cache:
	L1D_cache_core[0]: Access = 9413, Miss = 425, Miss_rate = 0.045, Pending_hits = 64, Reservation_fails = 1046
	L1D_cache_core[1]: Access = 9382, Miss = 395, Miss_rate = 0.042, Pending_hits = 52, Reservation_fails = 794
	L1D_cache_core[2]: Access = 9383, Miss = 396, Miss_rate = 0.042, Pending_hits = 63, Reservation_fails = 754
	L1D_cache_core[3]: Access = 9371, Miss = 423, Miss_rate = 0.045, Pending_hits = 61, Reservation_fails = 1054
	L1D_cache_core[4]: Access = 9375, Miss = 428, Miss_rate = 0.046, Pending_hits = 60, Reservation_fails = 1088
	L1D_cache_core[5]: Access = 10202, Miss = 432, Miss_rate = 0.042, Pending_hits = 64, Reservation_fails = 884
	L1D_cache_core[6]: Access = 8500, Miss = 362, Miss_rate = 0.043, Pending_hits = 53, Reservation_fails = 1258
	L1D_cache_core[7]: Access = 10233, Miss = 461, Miss_rate = 0.045, Pending_hits = 65, Reservation_fails = 777
	L1D_cache_core[8]: Access = 9369, Miss = 426, Miss_rate = 0.045, Pending_hits = 65, Reservation_fails = 1035
	L1D_cache_core[9]: Access = 10232, Miss = 465, Miss_rate = 0.045, Pending_hits = 69, Reservation_fails = 881
	L1D_cache_core[10]: Access = 9364, Miss = 430, Miss_rate = 0.046, Pending_hits = 62, Reservation_fails = 1041
	L1D_cache_core[11]: Access = 9350, Miss = 426, Miss_rate = 0.046, Pending_hits = 59, Reservation_fails = 1023
	L1D_cache_core[12]: Access = 9361, Miss = 427, Miss_rate = 0.046, Pending_hits = 55, Reservation_fails = 1146
	L1D_cache_core[13]: Access = 10257, Miss = 438, Miss_rate = 0.043, Pending_hits = 60, Reservation_fails = 1046
	L1D_cache_core[14]: Access = 9410, Miss = 429, Miss_rate = 0.046, Pending_hits = 61, Reservation_fails = 1169
	L1D_total_cache_accesses = 143202
	L1D_total_cache_misses = 6363
	L1D_total_cache_miss_rate = 0.0444
	L1D_total_cache_pending_hits = 913
	L1D_total_cache_reservation_fails = 14996
	L1D_cache_data_port_util = 0.425
	L1D_cache_fill_port_util = 0.014
L1C_cache:
	L1C_total_cache_accesses = 28224
	L1C_total_cache_misses = 541
	L1C_total_cache_miss_rate = 0.0192
	L1C_total_cache_pending_hits = 0
	L1C_total_cache_reservation_fails = 0
L1T_cache:
	L1T_total_cache_accesses = 0
	L1T_total_cache_misses = 0
	L1T_total_cache_pending_hits = 0
	L1T_total_cache_reservation_fails = 0

Total_core_cache_stats:
	Total_core_cache_stats_breakdown[GLOBAL_ACC_R][HIT] = 135926
	Total_core_cache_stats_breakdown[GLOBAL_ACC_R][HIT_RESERVED] = 913
	Total_core_cache_stats_breakdown[GLOBAL_ACC_R][MISS] = 4503
	Total_core_cache_stats_breakdown[GLOBAL_ACC_R][RESERVATION_FAIL] = 14693
	Total_core_cache_stats_breakdown[CONST_ACC_R][HIT] = 27683
	Total_core_cache_stats_breakdown[CONST_ACC_R][MISS] = 541
	Total_core_cache_stats_breakdown[GLOBAL_ACC_W][MISS] = 1860
	Total_core_cache_stats_breakdown[GLOBAL_ACC_W][RESERVATION_FAIL] = 303
	Total_core_cache_stats_breakdown[INST_ACC_R][HIT] = 242642
	Total_core_cache_stats_breakdown[INST_ACC_R][MISS] = 1238
	Total_core_cache_stats_breakdown[INST_ACC_R][RESERVATION_FAIL] = 4140
Shader 0 warp_id issue ditsribution:
warp_id:
0, 1, 2, 3, 4, 5, 6, 7, 8, 9, 10, 11, 12, 13, 14, 15, 16, 17, 18, 19, 20, 21, 22, 23, 24, 25, 26, 27, 28, 29, 30, 31, 32, 33, 34, 35, 36, 37, 38, 39, 40, 41, 42, 43, 44, 45, 46, 47, 
distro:
874, 874, 874, 874, 874, 816, 874, 874, 874, 874, 874, 845, 874, 874, 874, 874, 874, 845, 408, 437, 437, 437, 437, 437, 437, 437, 437, 437, 437, 437, 437, 437, 437, 437, 437, 408, 437, 437, 437, 437, 437, 437, 437, 437, 437, 437, 437, 408, 
gpgpu_n_tot_thrd_icount = 13976224
gpgpu_n_tot_w_icount = 436757
gpgpu_n_stall_shd_mem = 105782
gpgpu_n_mem_read_local = 0
gpgpu_n_mem_write_local = 0
gpgpu_n_mem_read_global = 4503
gpgpu_n_mem_write_global = 1860
gpgpu_n_mem_texture = 0
gpgpu_n_mem_const = 45
gpgpu_n_load_insn  = 1447992
gpgpu_n_store_insn = 28392
gpgpu_n_shmem_insn = 0
gpgpu_n_tex_insn = 0
gpgpu_n_const_mem_insn = 709800
gpgpu_n_param_mem_insn = 85176
gpgpu_n_shmem_bkconflict = 0
gpgpu_n_cache_bkconflict = 0
gpgpu_n_intrawarp_mshr_merge = 0
gpgpu_n_cmem_portconflict = 0
gpgpu_stall_shd_mem[c_mem][bk_conf] = 0
gpgpu_stall_shd_mem[c_mem][mshr_rc] = 0
gpgpu_stall_shd_mem[c_mem][icnt_rc] = 0
gpgpu_stall_shd_mem[c_mem][data_port_stall] = 0
gpgpu_stall_shd_mem[t_mem][mshr_rc] = 0
gpgpu_stall_shd_mem[t_mem][icnt_rc] = 0
gpgpu_stall_shd_mem[t_mem][data_port_stall] = 0
gpgpu_stall_shd_mem[s_mem][bk_conf] = 0
gpgpu_stall_shd_mem[gl_mem][bk_conf] = 0
gpgpu_stall_shd_mem[gl_mem][coal_stall] = 105782
gpgpu_stall_shd_mem[gl_mem][data_port_stall] = 0
gpgpu_stall_shd_mem[g_mem_ld][mshr_rc] = 0
gpgpu_stall_shd_mem[g_mem_ld][icnt_rc] = 0
gpgpu_stall_shd_mem[g_mem_ld][wb_icnt_rc] = 0
gpgpu_stall_shd_mem[g_mem_ld][wb_rsrv_fail] = 0
gpgpu_stall_shd_mem[g_mem_st][mshr_rc] = 0
gpgpu_stall_shd_mem[g_mem_st][icnt_rc] = 0
gpgpu_stall_shd_mem[g_mem_st][wb_icnt_rc] = 0
gpgpu_stall_shd_mem[g_mem_st][wb_rsrv_fail] = 0
gpgpu_stall_shd_mem[l_mem_ld][mshr_rc] = 0
gpgpu_stall_shd_mem[l_mem_ld][icnt_rc] = 0
gpgpu_stall_shd_mem[l_mem_ld][wb_icnt_rc] = 0
gpgpu_stall_shd_mem[l_mem_ld][wb_rsrv_fail] = 0
gpgpu_stall_shd_mem[l_mem_st][mshr_rc] = 0
gpgpu_stall_shd_mem[l_mem_st][icnt_rc] = 0
gpgpu_stall_shd_mem[l_mem_ld][wb_icnt_rc] = 0
gpgpu_stall_shd_mem[l_mem_ld][wb_rsrv_fail] = 0
gpu_reg_bank_conflict_stalls = 0
Warp Occupancy Distribution:
Stall:48920	W0_Idle:27552	W0_Scoreboard:126499	W1:1617	W2:1706	W3:1602	W4:1573	W5:1910	W6:2148	W7:2029	W8:1839	W9:69677	W10:1230	W11:880	W12:982	W13:1064	W14:1298	W15:978	W16:903	W17:828	W18:938	W19:914	W20:652	W21:625	W22:705	W23:1064	W24:1036	W25:1062	W26:1332	W27:1100	W28:1093	W29:981	W30:664	W31:754	W32:331573
traffic_breakdown_coretomem[CONST_ACC_R] = 360 {8:45,}
traffic_breakdown_coretomem[GLOBAL_ACC_R] = 36024 {8:4503,}
traffic_breakdown_coretomem[GLOBAL_ACC_W] = 172800 {40:499,72:504,136:857,}
traffic_breakdown_coretomem[INST_ACC_R] = 840 {8:105,}
traffic_breakdown_memtocore[CONST_ACC_R] = 3240 {72:45,}
traffic_breakdown_memtocore[GLOBAL_ACC_R] = 612408 {136:4503,}
traffic_breakdown_memtocore[GLOBAL_ACC_W] = 14880 {8:1860,}
traffic_breakdown_memtocore[INST_ACC_R] = 14280 {136:105,}
maxmrqlatency = 220 
maxdqlatency = 0 
maxmflatency = 752 
averagemflatency = 278 
max_icnt2mem_latency = 464 
max_icnt2sh_latency = 22219 
mrq_lat_table:1471 	368 	150 	217 	228 	118 	142 	98 	0 	0 	0 	0 	0 	0 	0 	0 	0 	0 	0 	0 	0 	0 	0 	0 	0 	0 	0 	0 	0 	0 	0 	0 	
dq_lat_table:0 	0 	0 	0 	0 	0 	0 	0 	0 	0 	0 	0 	0 	0 	0 	0 	0 	0 	0 	0 	0 	0 	0 	0 	0 	0 	0 	0 	0 	0 	0 	0 	
mf_lat_table:0 	0 	0 	0 	0 	0 	0 	3427 	2450 	531 	0 	0 	0 	0 	0 	0 	0 	0 	0 	0 	0 	0 	0 	0 	0 	0 	0 	0 	0 	0 	0 	0 	
icnt2mem_lat_table:0 	0 	0 	4218 	987 	582 	421 	220 	85 	0 	0 	0 	0 	0 	0 	0 	0 	0 	0 	0 	0 	0 	0 	0 	
icnt2sh_lat_table:0 	0 	0 	971 	2909 	647 	21 	0 	0 	0 	0 	0 	449 	847 	564 	0 	0 	0 	0 	0 	0 	0 	0 	0 	
mf_lat_pw_table:0 	0 	0 	0 	0 	0 	0 	37 	6 	0 	0 	0 	0 	0 	0 	0 	0 	0 	0 	0 	0 	0 	0 	0 	0 	0 	0 	0 	0 	0 	0 	0 	
maximum concurrent accesses to same row:
dram[0]:         1         0         0         0         0         0         0         0         0         0         0         0         0         0         0         0 
dram[1]:         1         0         0         0         0         0         0         0         0         0         0         0         0         0         0         0 
dram[2]:         0         0         0         0         0         0         0         0         0         0         0         0         0         0         0         0 
dram[3]:         0         0         0         0         0         0         0         0         0         0         0         0         0         0         0         0 
dram[4]:         0         0         0         0         0         0         0         0         0         0         0         0         0         0         0         0 
dram[5]:         0         0         0         0         0         0         0         0         0         0         0         0         0         0         0         0 
maximum service time to same row:
dram[0]:       317         0         0         0      1491      1500      1990      1960      6194       840      6322      6520     13866     13827         0         0 
dram[1]:      2082         0         0         0      1488      1524      1954      1849      6121      6075      6331      6544     14422     14353         0         0 
dram[2]:      4997         0         0         0      1485      1482      1972      1950      6232      6102      6368      6660     13916     14816         0         0 
dram[3]:      5744         0         0         0      1507      1478      1756      2029      6091      6157      6344      6479     13913     14828         0         0 
dram[4]:         0         0         0         0      1504      1500      1954      1991       834      6088      6463      6394     14366     14607         0         0 
dram[5]:         0         0         0         0      1506      1496      1985      2066       841      6184      6421      6516     13832     14600         0         0 
average row accesses per activate:
dram[0]:  1.000000      -nan      -nan      -nan 10.000000 10.000000 32.000000 32.000000 54.000000 56.000000 71.000000 73.000000 66.000000 64.000000      -nan      -nan 
dram[1]:  3.000000      -nan      -nan      -nan 10.000000 10.000000 32.000000 32.000000 55.000000 58.000000 74.000000 69.000000 63.000000 59.000000      -nan      -nan 
dram[2]:  2.000000      -nan      -nan      -nan 10.000000 12.000000 32.000000 32.000000 55.000000 57.000000 70.000000 69.000000 63.000000 62.000000      -nan      -nan 
dram[3]:  1.000000      -nan      -nan      -nan 10.000000 12.000000 32.000000 32.000000 55.000000 58.000000 72.000000 70.000000 66.000000 60.000000      -nan      -nan 
dram[4]:      -nan      -nan      -nan      -nan 10.000000 12.000000 32.000000 32.000000 53.000000 58.000000 71.000000 71.000000 64.000000 58.000000      -nan      -nan 
dram[5]:      -nan      -nan      -nan      -nan 10.000000 12.000000 32.000000 32.000000 53.000000 57.000000 71.000000 70.000000 65.000000 61.000000      -nan      -nan 
average row locality = 2792/66 = 42.303032
number of total memory accesses made:
dram[0]:         0         0         0         0         0         0         0         0         0         0         0         0         0         0         0         0 
dram[1]:         0         0         0         0         0         0         0         0         0         0         0         0         0         0         0         0 
dram[2]:         0         0         0         0         0         0         0         0         0         0         0         0         0         0         0         0 
dram[3]:         0         0         0         0         0         0         0         0         0         0         0         0         0         0         0         0 
dram[4]:         0         0         0         0         0         0         0         0         0         0         0         0         0         0         0         0 
dram[5]:         0         0         0         0         0         0         0         0         0         0         0         0         0         0         0         0 
total accesses: 0
min_bank_accesses = 0!
min_chip_accesses = 0!
number of total read accesses:
dram[0]:         3         0         0         0        10        10        32        32        32        31        32        32        30        30         0         0 
dram[1]:         3         0         0         0        10        10        32        32        32        32        32        32        30        28         0         0 
dram[2]:         2         0         0         0        10        12        32        32        32        32        32        32        30        28         0         0 
dram[3]:         1         0         0         0        10        12        32        32        32        32        32        32        30        28         0         0 
dram[4]:         0         0         0         0        10        12        32        32        32        32        32        32        30        28         0         0 
dram[5]:         0         0         0         0        10        12        32        32        32        32        32        32        30        28         0         0 
total reads: 1638
min_bank_accesses = 0!
chip skew: 274/272 = 1.01
number of total write accesses:
dram[0]:         0         0         0         0         0         0         0         0        22        25        39        41        36        34         0         0 
dram[1]:         0         0         0         0         0         0         0         0        23        26        42        37        33        31         0         0 
dram[2]:         0         0         0         0         0         0         0         0        23        25        38        37        33        34         0         0 
dram[3]:         0         0         0         0         0         0         0         0        23        26        40        38        36        32         0         0 
dram[4]:         0         0         0         0         0         0         0         0        21        26        39        39        34        30         0         0 
dram[5]:         0         0         0         0         0         0         0         0        21        25        39        38        35        33         0         0 
total reads: 1154
min_bank_accesses = 0!
chip skew: 197/189 = 1.04
average mf latency per bank:
dram[0]:       1296    none      none      none        2083      2704      2200      1800       637       631       234       208       204       203    none      none  
dram[1]:       1962    none      none      none        2785      2261      1861      1802       630       548       234       230       205       201    none      none  
dram[2]:          0    none      none      none        2975      2333      1858      1752       600       576       238       214       206       199    none      none  
dram[3]:          0    none      none      none        2579      2547      1699      1934       587       576       230       213       206       196    none      none  
dram[4]:     none      none      none      none        2963      2366      1759      1903       685       511       225       230       209       202    none      none  
dram[5]:     none      none      none      none        2798      2268      1656      1822       648       581       213       228       204       194    none      none  
maximum mf latency per bank:
dram[0]:        282         0         0         0       527       566       752       583       670       722       744       450       337       303         0         0
dram[1]:        269         0         0         0       630       528       669       550       670       678       605       621       288       280         0         0
dram[2]:          0         0         0         0       677       577       630       534       689       688       544       602       300       286         0         0
dram[3]:          0         0         0         0       578       636       588       622       686       745       589       580       323       292         0         0
dram[4]:          0         0         0         0       672       592       614       668       745       588       522       656       290       294         0         0
dram[5]:          0         0         0         0       601       575       613       604       652       724       388       516       274       338         0         0

Number of Memory Banks Accessed per Memory Operation per Warp (from 0):
0	0	0	0	0	0	0	0	0	0	0	0	0	0	0	0	0	0	0	0	0	0	0	0	0	0	0	0	0	0	0	0	0	0	0	0	0	0	0	0	0	0	0	0	0	0	0	0	0	0	0	0	0	0	0	0	0	0	0	0	0	0	0	0	0	0	0	0	0	0	0	0	0	0	0	0	0	0	0	0	0	0	0	0	0	0	0	0	0	0	0	0	0	0	0	0	
Average # of Memory Banks Accessed per Memory Operation per Warp=-nan

position of mrq chosen
0	0	0	0	0	0	0	0	0	0	0	0	0	0	0	0	

average position of mrq chosen = -nan
Memory Partition 0: 
Cache L2_bank_000:
MSHR contents

Cache L2_bank_001:
MSHR contents

In Dram Latency Queue (total = 0): 
DRAM[0]: 16 bks, busW=4 BL=8 CL=12, tRRD=2 tCCD=6, tRCD=12 tRAS=28 tRP=12 tRC=40
n_cmd=29330 n_nop=28472 n_act=13 n_pre=2 n_req=471 n_rd=548 n_write=295 bw_util=0.05748
n_activity=5480 dram_eff=0.3077
bk0: 6a 29256i bk1: 0a 29326i bk2: 0a 29330i bk3: 0a 29332i bk4: 20a 29274i bk5: 20a 29259i bk6: 64a 29127i bk7: 64a 29070i bk8: 64a 28605i bk9: 62a 28587i bk10: 64a 28418i bk11: 64a 28472i bk12: 60a 28608i bk13: 60a 28609i bk14: 0a 29326i bk15: 0a 29328i 
dram_util_bins: 0 0 0 0 0 0 0 0 0 0
dram_eff_bins: 0 0 0 0 0 0 0 0 0 0
mrqq: max=16 avg=0.332629
Memory Partition 1: 
Cache L2_bank_002:
MSHR contents

Cache L2_bank_003:
MSHR contents

In Dram Latency Queue (total = 0): 
DRAM[1]: 16 bks, busW=4 BL=8 CL=12, tRRD=2 tCCD=6, tRCD=12 tRAS=28 tRP=12 tRC=40
n_cmd=29330 n_nop=28482 n_act=12 n_pre=1 n_req=465 n_rd=546 n_write=289 bw_util=0.05694
n_activity=5480 dram_eff=0.3047
bk0: 6a 29280i bk1: 0a 29328i bk2: 0a 29329i bk3: 0a 29330i bk4: 20a 29272i bk5: 20a 29275i bk6: 64a 29114i bk7: 64a 29063i bk8: 64a 28637i bk9: 64a 28523i bk10: 64a 28403i bk11: 64a 28410i bk12: 60a 28673i bk13: 56a 28758i bk14: 0a 29326i bk15: 0a 29326i 
dram_util_bins: 0 0 0 0 0 0 0 0 0 0
dram_eff_bins: 0 0 0 0 0 0 0 0 0 0
mrqq: max=16 avg=0.294443
Memory Partition 2: 
Cache L2_bank_004:
MSHR contents

Cache L2_bank_005:
MSHR contents

In Dram Latency Queue (total = 0): 
DRAM[2]: 16 bks, busW=4 BL=8 CL=12, tRRD=2 tCCD=6, tRCD=12 tRAS=28 tRP=12 tRC=40
n_cmd=29330 n_nop=28488 n_act=11 n_pre=0 n_req=464 n_rd=548 n_write=283 bw_util=0.05667
n_activity=5293 dram_eff=0.314
bk0: 4a 29306i bk1: 0a 29328i bk2: 0a 29330i bk3: 0a 29333i bk4: 20a 29267i bk5: 24a 29234i bk6: 64a 29061i bk7: 64a 29112i bk8: 64a 28596i bk9: 64a 28525i bk10: 64a 28523i bk11: 64a 28435i bk12: 60a 28680i bk13: 56a 28676i bk14: 0a 29326i bk15: 0a 29327i 
dram_util_bins: 0 0 0 0 0 0 0 0 0 0
dram_eff_bins: 0 0 0 0 0 0 0 0 0 0
mrqq: max=16 avg=0.32373
Memory Partition 3: 
Cache L2_bank_006:
MSHR contents

Cache L2_bank_007:
MSHR contents

In Dram Latency Queue (total = 0): 
DRAM[3]: 16 bks, busW=4 BL=8 CL=12, tRRD=2 tCCD=6, tRCD=12 tRAS=28 tRP=12 tRC=40
n_cmd=29330 n_nop=28484 n_act=11 n_pre=0 n_req=468 n_rd=546 n_write=289 bw_util=0.05694
[...]
gpgpu_stall_shd_mem[l_mem_ld][wb_rsrv_fail] = 0
gpgpu_stall_shd_mem[l_mem_st][mshr_rc] = 0
gpgpu_stall_shd_mem[l_mem_st][icnt_rc] = 0
gpgpu_stall_shd_mem[l_mem_ld][wb_icnt_rc] = 0
gpgpu_stall_shd_mem[l_mem_ld][wb_rsrv_fail] = 0
gpu_reg_bank_conflict_stalls = 0
Warp Occupancy Distribution:
Stall:676891	W0_Idle:83959	W0_Scoreboard:1223522	W1:2597	W2:3581	W3:4068	W4:3798	W5:4566	W6:4331	W7:4364	W8:4137	W9:72206	W10:3671	W11:2610	W12:2826	W13:3133	W14:3223	W15:3869	W16:3792	W17:3561	W18:3978	W19:4192	W20:4403	W21:3990	W22:4431	W23:3704	W24:2421	W25:1078195	W26:1332	W27:1100	W28:1093	W29:981	W30:664	W31:754	W32:331573
traffic_breakdown_coretomem[CONST_ACC_R] = 600 {8:75,}
traffic_breakdown_coretomem[GLOBAL_ACC_R] = 222160 {8:27770,}
traffic_breakdown_coretomem[GLOBAL_ACC_W] = 394000 {40:1199,72:1204,136:1907,}
traffic_breakdown_coretomem[INST_ACC_R] = 1680 {8:210,}
traffic_breakdown_memtocore[CONST_ACC_R] = 5400 {72:75,}
traffic_breakdown_memtocore[GLOBAL_ACC_R] = 3776720 {136:27770,}
traffic_breakdown_memtocore[GLOBAL_ACC_W] = 34480 {8:4310,}
traffic_breakdown_memtocore[INST_ACC_R] = 28560 {136:210,}
maxmrqlatency = 220 
maxdqlatency = 0 
maxmflatency = 752 
averagemflatency = 181 
max_icnt2mem_latency = 464 
max_icnt2sh_latency = 121313 
mrq_lat_table:3172 	770 	234 	390 	432 	141 	148 	98 	0 	0 	0 	0 	0 	0 	0 	0 	0 	0 	0 	0 	0 	0 	0 	0 	0 	0 	0 	0 	0 	0 	0 	0 	
dq_lat_table:0 	0 	0 	0 	0 	0 	0 	0 	0 	0 	0 	0 	0 	0 	0 	0 	0 	0 	0 	0 	0 	0 	0 	0 	0 	0 	0 	0 	0 	0 	0 	0 	
mf_lat_table:0 	0 	0 	0 	0 	0 	0 	28226 	3398 	531 	0 	0 	0 	0 	0 	0 	0 	0 	0 	0 	0 	0 	0 	0 	0 	0 	0 	0 	0 	0 	0 	0 	
icnt2mem_lat_table:0 	0 	0 	29464 	1535 	624 	437 	220 	85 	0 	0 	0 	0 	0 	0 	0 	0 	0 	0 	0 	0 	0 	0 	0 	
icnt2sh_lat_table:0 	0 	0 	15709 	10627 	1481 	28 	0 	0 	0 	0 	0 	449 	847 	598 	927 	1489 	0 	0 	0 	0 	0 	0 	0 	
mf_lat_pw_table:0 	0 	0 	0 	0 	0 	0 	235 	7 	0 	0 	0 	0 	0 	0 	0 	0 	0 	0 	0 	0 	0 	0 	0 	0 	0 	0 	0 	0 	0 	0 	0 	
maximum concurrent accesses to same row:
dram[0]:         1         2         0         0        10        10         0         0         0         0         0         0         0         0         0         0 
dram[1]:         2         0         0         0        10        10         0         0         0         0         0         0         0         0         0         0 
dram[2]:         2         0         0         0        10        12         0         0         0         0         0         0         0         0         0         0 
dram[3]:         2         0         0         0        10        12         0         0         0         0         0         0         0         0         0         0 
dram[4]:         2         0         0         0        10        12         0         0         0         0         0         0         0         0         0         0 
dram[5]:         2         0         0         0        10        12         0         0         0         0         0         0         0         0         0         0 
maximum service time to same row:
dram[0]:     18934     13105     54306     54010     84265     84596      1990      1960      6194       840      6322      6520     13866     13827       282       288 
dram[1]:     19357     22269     54300     54866     84265     84977      1954      1849      6121      6075      6331      6544     14422     14353       288       282 
dram[2]:     15332     23040     54104     55160     85434     85664      1972      1950      6232      6102      6368      6660     13916     14816       285       291 
dram[3]:     14250     22681     53800     55419     85287     85316      1756      2029      6091      6157      6344      6479     13913     14828       287       285 
dram[4]:     20629     22966     53659     55738     84549     86091      1954      1991       834      6088      6463      6394     14366     14607       285       285 
dram[5]:     12371     24679     54821     56993     84543     85264      1985      2066       841      6184      6421      6516     13832     14600       282       304 
average row accesses per activate:
dram[0]: 17.750000 35.000000 71.000000 67.000000 19.500000 17.500000 32.000000 32.000000 54.000000 56.000000 71.000000 73.000000 68.000000 66.000000 47.000000 47.000000 
dram[1]: 24.666666 72.000000 68.000000 70.000000 20.000000 17.500000 32.000000 32.000000 55.000000 58.000000 74.000000 69.000000 65.000000 63.000000 48.000000 49.000000 
dram[2]: 34.500000 69.000000 67.000000 71.000000 20.500000 18.500000 32.000000 32.000000 55.000000 57.000000 70.000000 69.000000 65.000000 66.000000 46.000000 47.000000 
dram[3]: 35.000000 68.000000 65.000000 69.000000 19.500000 19.500000 32.000000 32.000000 55.000000 58.000000 72.000000 70.000000 68.000000 64.000000 50.000000 50.000000 
dram[4]: 36.000000 72.000000 68.000000 68.000000 18.000000 19.000000 32.000000 32.000000 53.000000 58.000000 71.000000 71.000000 66.000000 62.000000 50.000000 49.000000 
dram[5]: 34.000000 72.000000 67.000000 66.000000 17.000000 19.000000 32.000000 32.000000 53.000000 57.000000 71.000000 70.000000 67.000000 65.000000 49.000000 49.000000 
average row locality = 5385/118 = 45.635593
number of total memory accesses made:
dram[0]:         0         0         0         0         0         0         0         0         0         0         0         0         0         0         0         0 
dram[1]:         0         0         0         0         0         0         0         0         0         0         0         0         0         0         0         0 
dram[2]:         0         0         0         0         0         0         0         0         0         0         0         0         0         0         0         0 
dram[3]:         0         0         0         0         0         0         0         0         0         0         0         0         0         0         0         0 
dram[4]:         0         0         0         0         0         0         0         0         0         0         0         0         0         0         0         0 
dram[5]:         0         0         0         0         0         0         0         0         0         0         0         0         0         0         0         0 
total accesses: 0
min_bank_accesses = 0!
min_chip_accesses = 0!
number of total read accesses:
dram[0]:        35        34        32        32        24        22        32        32        32        31        32        32        32        32        32        32 
dram[1]:        36        32        32        32        24        22        32        32        32        32        32        32        32        32        32        32 
dram[2]:        34        32        32        32        24        24        32        32        32        32        32        32        32        32        32        32 
dram[3]:        34        32        32        32        24        24        32        32        32        32        32        32        32        32        32        32 
dram[4]:        34        32        32        32        22        24        32        32        32        32        32        32        32        32        32        32 
dram[5]:        34        32        32        32        22        24        32        32        32        32        32        32        32        32        32        32 
total reads: 2984
bank skew: 36/22 = 1.64
chip skew: 498/496 = 1.00
number of total write accesses:
dram[0]:        36        36        39        35        15        13         0         0        22        25        39        41        36        34        15        15 
dram[1]:        38        40        36        38        16        13         0         0        23        26        42        37        33        31        16        17 
dram[2]:        35        37        35        39        17        13         0         0        23        25        38        37        33        34        14        15 
dram[3]:        36        36        33        37        15        15         0         0        23        26        40        38        36        32        18        18 
dram[4]:        38        40        36        36        14        14         0         0        21        26        39        39        34        30        18        17 
dram[5]:        34        40        35        34        12        14         0         0        21        25        39        38        35        33        17        17 
total reads: 2401
min_bank_accesses = 0!
chip skew: 406/394 = 1.03
average mf latency per bank:
dram[0]:        257       201       204       214       695       921      2200      1800      1513      1324      1336      1290      1399      1366      2079      1933
dram[1]:        349       203       211       210       855       799      1861      1802      1385      1500      1298      1396      1513      1648      1962      2020
dram[2]:        207       211       208       206       885       901      1858      1752      1395      1519      1382      1411      1462      1531      2011      2081
dram[3]:        201       216       215       206       814       930      1699      1934      1351      1222      1367      1386      1388      1696      1997      1574
dram[4]:        200       205       214       210       969       890      1759      1903      1599      1225      1355      1309      1553      1520      1822      1969
dram[5]:        206       209       215       210       967       863      1656      1822      1382      1349      1375      1348      1461      1534      2045      1709
maximum mf latency per bank:
dram[0]:        282       266       275       284       527       566       752       583       670       722       744       450       337       303       338       314
dram[1]:        299       285       271       271       630       528       669       550       670       678       605       621       288       297       355       358
dram[2]:        273       293       274       269       677       577       630       534       689       688       544       602       300       286       324       314
dram[3]:        282       286       272       286       578       636       588       622       686       745       589       580       323       292       386       347
dram[4]:        271       271       283       270       672       592       614       668       745       588       522       656       290       294       294       352
dram[5]:        282       279       278       273       601       575       613       604       652       724       388       516       274       338       349       377

Number of Memory Banks Accessed per Memory Operation per Warp (from 0):
0	0	0	0	0	0	0	0	0	0	0	0	0	0	0	0	0	0	0	0	0	0	0	0	0	0	0	0	0	0	0	0	0	0	0	0	0	0	0	0	0	0	0	0	0	0	0	0	0	0	0	0	0	0	0	0	0	0	0	0	0	0	0	0	0	0	0	0	0	0	0	0	0	0	0	0	0	0	0	0	0	0	0	0	0	0	0	0	0	0	0	0	0	0	0	0	
Average # of Memory Banks Accessed per Memory Operation per Warp=-nan

position of mrq chosen
0	0	0	0	0	0	0	0	0	0	0	0	0	0	0	0	

average position of mrq chosen = -nan
Memory Partition 0: 
Cache L2_bank_000:
MSHR contents

Cache L2_bank_001:
MSHR contents

In Dram Latency Queue (total = 0): 
DRAM[0]: 16 bks, busW=4 BL=8 CL=12, tRRD=2 tCCD=6, tRCD=12 tRAS=28 tRP=12 tRC=40
n_cmd=160133 n_nop=158519 n_act=22 n_pre=6 n_req=899 n_rd=996 n_write=590 bw_util=0.01981
n_activity=11334 dram_eff=0.2799
bk0: 70a 159460i bk1: 68a 159520i bk2: 64a 159533i bk3: 64a 159519i bk4: 48a 159785i bk5: 44a 159830i bk6: 64a 159927i bk7: 64a 159871i bk8: 64a 159406i bk9: 62a 159390i bk10: 64a 159221i bk11: 64a 159276i bk12: 64a 159404i bk13: 64a 159406i bk14: 64a 159765i bk15: 64a 159693i 
dram_util_bins: 0 0 0 0 0 0 0 0 0 0
dram_eff_bins: 0 0 0 0 0 0 0 0 0 0
mrqq: max=16 avg=0.0688365
Memory Partition 1: 
Cache L2_bank_002:
MSHR contents

Cache L2_bank_003:
MSHR contents

In Dram Latency Queue (total = 0): 
DRAM[1]: 16 bks, busW=4 BL=8 CL=12, tRRD=2 tCCD=6, tRCD=12 tRAS=28 tRP=12 tRC=40
n_cmd=160133 n_nop=158520 n_act=21 n_pre=5 n_req=904 n_rd=996 n_write=591 bw_util=0.01982
n_activity=11483 dram_eff=0.2764
bk0: 72a 159428i bk1: 64a 159513i bk2: 64a 159542i bk3: 64a 159507i bk4: 48a 159793i bk5: 44a 159820i bk6: 64a 159912i bk7: 64a 159863i bk8: 64a 159438i bk9: 64a 159324i bk10: 64a 159205i bk11: 64a 159214i bk12: 64a 159471i bk13: 64a 159542i bk14: 64a 159776i bk15: 64a 159711i 
dram_util_bins: 0 0 0 0 0 0 0 0 0 0
dram_eff_bins: 0 0 0 0 0 0 0 0 0 0
mrqq: max=16 avg=0.0626229
Memory Partition 2: 
Cache L2_bank_004:
MSHR contents

Cache L2_bank_005:
MSHR contents

In Dram Latency Queue (total = 0): 
DRAM[2]: 16 bks, busW=4 BL=8 CL=12, tRRD=2 tCCD=6, tRCD=12 tRAS=28 tRP=12 tRC=40
n_cmd=160133 n_nop=158529 n_act=19 n_pre=3 n_req=893 n_rd=996 n_write=586 bw_util=0.01976
n_activity=11144 dram_eff=0.2839
bk0: 68a 159479i bk1: 64a 159489i bk2: 64a 159542i bk3: 64a 159528i bk4: 48a 159759i bk5: 48a 159778i bk6: 64a 159861i bk7: 64a 159913i bk8: 64a 159397i bk9: 64a 159327i bk10: 64a 159327i bk11: 64a 159239i bk12: 64a 159476i bk13: 64a 159464i bk14: 64a 159802i bk15: 64a 159730i 
dram_util_bins: 0 0 0 0 0 0 0 0 0 0
dram_eff_bins: 0 0 0 0 0 0 0 0 0 0
mrqq: max=16 avg=0.0701355
Memory Partition 3: 
Cache L2_bank_006:
MSHR contents

Cache L2_bank_007:
MSHR contents

In Dram Latency Queue (total = 0): 
DRAM[3]: 16 bks, busW=4 BL=8 CL=12, tRRD=2 tCCD=6, tRCD=12 tRAS=28 tRP=12 tRC=40
n_cmd=160133 n_nop=158518 n_act=19 n_pre=3 n_req=901 n_rd=996 n_write=597 bw_util=0.0199
n_activity=11164 dram_eff=0.2854
bk0: 68a 159433i bk1: 64a 159471i bk2: 64a 159569i bk3: 64a 159513i bk4: 48a 159803i bk5: 48a 159789i bk6: 64a 159866i bk7: 64a 159766i bk8: 64a 159376i bk9: 64a 159333i bk10: 64a 159180i bk11: 64a 159340i bk12: 64a 159453i bk13: 64a 159502i bk14: 64a 159708i bk15: 64a 159691i 
dram_util_bins: 0 0 0 0 0 0 0 0 0 0
dram_eff_bins: 0 0 0 0 0 0 0 0 0 0
mrqq: max=16 avg=0.076043
Memory Partition 4: 
Cache L2_bank_008:
MSHR contents

Cache L2_bank_009:
MSHR contents

In Dram Latency Queue (total = 0): 
DRAM[4]: 16 bks, busW=4 BL=8 CL=12, tRRD=2 tCCD=6, tRCD=12 tRAS=28 tRP=12 tRC=40
n_cmd=160133 n_nop=158534 n_act=19 n_pre=3 n_req=898 n_rd=992 n_write=585 bw_util=0.0197
n_activity=11358 dram_eff=0.2777
bk0: 68a 159475i bk1: 64a 159510i bk2: 64a 159515i bk3: 64a 159574i bk4: 44a 159840i bk5: 48a 159796i bk6: 64a 159880i bk7: 64a 159832i bk8: 64a 159433i bk9: 64a 159481i bk10: 64a 159289i bk11: 64a 159261i bk12: 64a 159474i bk13: 64a 159574i bk14: 64a 159703i bk15: 64a 159643i 
dram_util_bins: 0 0 0 0 0 0 0 0 0 0
dram_eff_bins: 0 0 0 0 0 0 0 0 0 0
mrqq: max=16 avg=0.0662449
Memory Partition 5: 
Cache L2_bank_010:
MSHR contents

Cache L2_bank_011:
MSHR contents

In Dram Latency Queue (total = 0): 
DRAM[5]: 16 bks, busW=4 BL=8 CL=12, tRRD=2 tCCD=6, tRCD=12 tRAS=28 tRP=12 tRC=40
n_cmd=160133 n_nop=158529 n_act=19 n_pre=3 n_req=890 n_rd=992 n_write=590 bw_util=0.01976
n_activity=11271 dram_eff=0.2807
bk0: 68a 159477i bk1: 64a 159524i bk2: 64a 159505i bk3: 64a 159475i bk4: 44a 159845i bk5: 48a 159792i bk6: 64a 159879i bk7: 64a 159826i bk8: 64a 159443i bk9: 64a 159414i bk10: 64a 159305i bk11: 64a 159285i bk12: 64a 159521i bk13: 64a 159507i bk14: 64a 159711i bk15: 64a 159675i 
dram_util_bins: 0 0 0 0 0 0 0 0 0 0
dram_eff_bins: 0 0 0 0 0 0 0 0 0 0
mrqq: max=16 avg=0.0696046

========= L2 cache stats =========
L2_cache_bank[0]: Access = 2731, Miss = 251, Miss_rate = 0.092, Pending_hits = 165, Reservation_fails = 1342
L2_cache_bank[1]: Access = 2598, Miss = 247, Miss_rate = 0.095, Pending_hits = 145, Reservation_fails = 1099
L2_cache_bank[2]: Access = 2708, Miss = 252, Miss_rate = 0.093, Pending_hits = 170, Reservation_fails = 987
L2_cache_bank[3]: Access = 2810, Miss = 246, Miss_rate = 0.088, Pending_hits = 152, Reservation_fails = 1053
L2_cache_bank[4]: Access = 2638, Miss = 250, Miss_rate = 0.095, Pending_hits = 138, Reservation_fails = 905
L2_cache_bank[5]: Access = 2802, Miss = 248, Miss_rate = 0.089, Pending_hits = 160, Reservation_fails = 997
L2_cache_bank[6]: Access = 2682, Miss = 250, Miss_rate = 0.093, Pending_hits = 156, Reservation_fails = 1033
L2_cache_bank[7]: Access = 2640, Miss = 248, Miss_rate = 0.094, Pending_hits = 146, Reservation_fails = 846
L2_cache_bank[8]: Access = 2769, Miss = 248, Miss_rate = 0.090, Pending_hits = 137, Reservation_fails = 942
L2_cache_bank[9]: Access = 2634, Miss = 248, Miss_rate = 0.094, Pending_hits = 138, Reservation_fails = 736
L2_cache_bank[10]: Access = 2732, Miss = 248, Miss_rate = 0.091, Pending_hits = 127, Reservation_fails = 736
L2_cache_bank[11]: Access = 2621, Miss = 248, Miss_rate = 0.095, Pending_hits = 153, Reservation_fails = 1031
L2_total_cache_accesses = 32365
L2_total_cache_misses = 2984
L2_total_cache_miss_rate = 0.0922
L2_total_cache_pending_hits = 1787
L2_total_cache_reservation_fails = 11707
L2_total_cache_breakdown:
	L2_cache_stats_breakdown[GLOBAL_ACC_R][HIT] = 25454
	L2_cache_stats_breakdown[GLOBAL_ACC_R][HIT_RESERVED] = 1331
	L2_cache_stats_breakdown[GLOBAL_ACC_R][MISS] = 985
	L2_cache_stats_breakdown[GLOBAL_ACC_R][RESERVATION_FAIL] = 10672
	L2_cache_stats_breakdown[CONST_ACC_R][HIT] = 63
	L2_cache_stats_breakdown[CONST_ACC_R][HIT_RESERVED] = 9
	L2_cache_stats_breakdown[CONST_ACC_R][MISS] = 3
	L2_cache_stats_breakdown[CONST_ACC_R][RESERVATION_FAIL] = 300
	L2_cache_stats_breakdown[GLOBAL_ACC_W][HIT] = 1909
	L2_cache_stats_breakdown[GLOBAL_ACC_W][HIT_RESERVED] = 419
	L2_cache_stats_breakdown[GLOBAL_ACC_W][MISS] = 1982
	L2_cache_stats_breakdown[GLOBAL_ACC_W][RESERVATION_FAIL] = 3
	L2_cache_stats_breakdown[INST_ACC_R][HIT] = 168
	L2_cache_stats_breakdown[INST_ACC_R][HIT_RESERVED] = 28
	L2_cache_stats_breakdown[INST_ACC_R][MISS] = 14
	L2_cache_stats_breakdown[INST_ACC_R][RESERVATION_FAIL] = 732
L2_cache_data_port_util = 0.074
L2_cache_fill_port_util = 0.008

icnt_total_pkts_mem_to_simt=144435
icnt_total_pkts_simt_to_mem=43600
LD_mem_lat_dist  0 0 0 0 0 0 0 0 0 0 0 0 0 0 0 0 0 0 0 0 0 0 0 0 0 0 0
ST_mem_lat_dist  0 0 0 0 0 0 0 0 0 0 0 0 0 0 0 0 0 0 0 0 0 0 0 0 0 0 0
----------------------------Interconnect-DETAILS--------------------------------
Class 0:
Packet latency average = 10.6417
	minimum = 6
	maximum = 74
Network latency average = 10.1895
	minimum = 6
	maximum = 57
Slowest packet = 13529
Flit latency average = 8.85693
	minimum = 6
	maximum = 53
Slowest flit = 44230
Fragmentation average = 0
	minimum = 0
	maximum = 0
Injected packet rate average = 0.0193247
	minimum = 0.0159243 (at node 4)
	maximum = 0.0232103 (at node 18)
Accepted packet rate average = 0.0193247
	minimum = 0.0159243 (at node 4)
	maximum = 0.0232103 (at node 18)
Injected flit rate average = 0.0566436
	minimum = 0.0202232 (at node 4)
	maximum = 0.107857 (at node 18)
Accepted flit rate average= 0.0566436
	minimum = 0.0261065 (at node 16)
	maximum = 0.0910348 (at node 14)
Injected packet length average = 2.93115
Accepted packet length average = 2.93115
Total in-flight flits = 0 (0 measured)
====== Overall Traffic Statistics ======
====== Traffic class 0 ======
Packet latency average = 14.2433 (2 samples)
	minimum = 6 (2 samples)
	maximum = 190.5 (2 samples)
Network latency average = 12.3925 (2 samples)
	minimum = 6 (2 samples)
	maximum = 181.5 (2 samples)
Flit latency average = 10.3078 (2 samples)
	minimum = 6 (2 samples)
	maximum = 179.5 (2 samples)
Fragmentation average = 0.028635 (2 samples)
	minimum = 0 (2 samples)
	maximum = 147 (2 samples)
Injected packet rate average = 0.0205184 (2 samples)
	minimum = 0.016333 (2 samples)
	maximum = 0.024994 (2 samples)
Accepted packet rate average = 0.0205184 (2 samples)
	minimum = 0.016333 (2 samples)
	maximum = 0.024994 (2 samples)
Injected flit rate average = 0.0587273 (2 samples)
	minimum = 0.0250981 (2 samples)
	maximum = 0.105391 (2 samples)
Accepted flit rate average = 0.0587273 (2 samples)
	minimum = 0.0338003 (2 samples)
	maximum = 0.086674 (2 samples)
Injected packet size average = 2.86217 (2 samples)
Accepted packet size average = 2.86217 (2 samples)
Hops average = 1 (2 samples)
