

        *** GPGPU-Sim Simulator Version 3.2.2  [build 0] ***


GPGPU-Sim PTX: simulation mode 0 (can change with PTX_SIM_MODE_FUNC environment variable:
               1=functional simulation only, 0=detailed performance simulator)
GPGPU-Sim: Configuration options:

-network_mode                           1 # Interconnection network mode
-inter_config_file   config_fermi_islip.icnt # Interconnection network config file
-gpgpu_ptx_use_cuobjdump                    1 # Use cuobjdump to extract ptx and sass from binaries
-gpgpu_experimental_lib_support                    0 # Try to extract code from cuda libraries [Broken because of unknown cudaGetExportTable]
-gpgpu_ptx_convert_to_ptxplus                    0 # Convert SASS (native ISA) to ptxplus and run ptxplus
-gpgpu_ptx_force_max_capability                   20 # Force maximum compute capability
-gpgpu_ptx_inst_debug_to_file                    0 # Dump executed instructions' debug information to file
-gpgpu_ptx_inst_debug_file       inst_debug.txt # Executed instructions' debug output file
-gpgpu_ptx_inst_debug_thread_uid                    1 # Thread UID for executed instructions' debug output
-gpgpu_simd_model                       1 # 1 = post-dominator
-gpgpu_shader_core_pipeline              1536:32 # shader core pipeline config, i.e., {<nthread>:<warpsize>}
-gpgpu_tex_cache:l1  4:128:24,L:R:m:N:L,F:128:4,128:2 # per-shader L1 texture cache  (READ-ONLY) config  {<nsets>:<bsize>:<assoc>,<rep>:<wr>:<alloc>:<wr_alloc>,<mshr>:<N>:<merge>,<mq>:<rf>}
-gpgpu_const_cache:l1 64:64:2,L:R:f:N:L,A:2:32,4 # per-shader L1 constant memory cache  (READ-ONLY) config  {<nsets>:<bsize>:<assoc>,<rep>:<wr>:<alloc>:<wr_alloc>,<mshr>:<N>:<merge>,<mq>} 
-gpgpu_cache:il1     4:128:4,L:R:f:N:L,A:2:32,4 # shader L1 instruction cache config  {<nsets>:<bsize>:<assoc>,<rep>:<wr>:<alloc>:<wr_alloc>,<mshr>:<N>:<merge>,<mq>} 
-gpgpu_cache:dl1     32:128:4,L:L:m:N:H,A:32:8,8:2,0,1:0:1:1:0:1,1:4:8:16:32:64,/sciclone/data10/hwang07/GPU_RESEARCH/swl/swl_outputs/RESULTS/swl16/ # per-shader L1 data cache config  {<nsets>:<bsize>:<assoc>,<rep>:<wr>:<alloc>:<wr_alloc>,<mshr>:<N>:<merge>,<mq> | none}
-gpgpu_cache:dl1PrefL1                 none # per-shader L1 data cache config  {<nsets>:<bsize>:<assoc>,<rep>:<wr>:<alloc>:<wr_alloc>,<mshr>:<N>:<merge>,<mq> | none}
-gpgpu_cache:dl1PreShared                 none # per-shader L1 data cache config  {<nsets>:<bsize>:<assoc>,<rep>:<wr>:<alloc>:<wr_alloc>,<mshr>:<N>:<merge>,<mq> | none}
-gmem_skip_L1D                          0 # global memory access skip L1D cache (implements -Xptxas -dlcm=cg, default=no skip)
-gpgpu_perfect_mem                      0 # enable perfect memory mode (no cache miss)
-n_regfile_gating_group                    4 # group of lanes that should be read/written together)
-gpgpu_clock_gated_reg_file                    0 # enable clock gated reg file for power calculations
-gpgpu_clock_gated_lanes                    0 # enable clock gated lanes for power calculations
-gpgpu_shader_registers                32768 # Number of registers per shader core. Limits number of concurrent CTAs. (default 8192)
-gpgpu_shader_cta                       8 # Maximum number of concurrent CTAs in shader (default 8)
-gpgpu_num_cta_barriers                   16 # Maximum number of named barriers per CTA (default 16)
-gpgpu_n_clusters                      15 # number of processing clusters
-gpgpu_n_cores_per_cluster                    1 # number of simd cores per cluster
-gpgpu_n_cluster_ejection_buffer_size                    8 # number of packets in ejection buffer
-gpgpu_n_ldst_response_buffer_size                    2 # number of response packets in ld/st unit ejection buffer
-gpgpu_shmem_size                   16384 # Size of shared memory per shader core (default 16kB)
-gpgpu_shmem_size                   49152 # Size of shared memory per shader core (default 16kB)
-gpgpu_shmem_size_PrefL1                16384 # Size of shared memory per shader core (default 16kB)
-gpgpu_shmem_size_PrefShared                16384 # Size of shared memory per shader core (default 16kB)
-gpgpu_shmem_num_banks                   32 # Number of banks in the shared memory in each shader core (default 16)
-gpgpu_shmem_limited_broadcast                    0 # Limit shared memory to do one broadcast per cycle (default on)
-gpgpu_shmem_warp_parts                    1 # Number of portions a warp is divided into for shared memory bank conflict check 
-gpgpu_warpdistro_shader                   -1 # Specify which shader core to collect the warp size distribution from
-gpgpu_warp_issue_shader                    0 # Specify which shader core to collect the warp issue distribution from
-gpgpu_local_mem_map                    1 # Mapping from local memory space address to simulated GPU physical address space (default = enabled)
-gpgpu_num_reg_banks                   16 # Number of register banks (default = 8)
-gpgpu_reg_bank_use_warp_id                    0 # Use warp ID in mapping registers to banks (default = off)
-gpgpu_operand_collector_num_units_sp                    6 # number of collector units (default = 4)
-gpgpu_operand_collector_num_units_sfu                    8 # number of collector units (default = 4)
-gpgpu_operand_collector_num_units_mem                    2 # number of collector units (default = 2)
-gpgpu_operand_collector_num_units_gen                    0 # number of collector units (default = 0)
-gpgpu_operand_collector_num_in_ports_sp                    2 # number of collector unit in ports (default = 1)
-gpgpu_operand_collector_num_in_ports_sfu                    1 # number of collector unit in ports (default = 1)
-gpgpu_operand_collector_num_in_ports_mem                    1 # number of collector unit in ports (default = 1)
-gpgpu_operand_collector_num_in_ports_gen                    0 # number of collector unit in ports (default = 0)
-gpgpu_operand_collector_num_out_ports_sp                    2 # number of collector unit in ports (default = 1)
-gpgpu_operand_collector_num_out_ports_sfu                    1 # number of collector unit in ports (default = 1)
-gpgpu_operand_collector_num_out_ports_mem                    1 # number of collector unit in ports (default = 1)
-gpgpu_operand_collector_num_out_ports_gen                    0 # number of collector unit in ports (default = 0)
-gpgpu_coalesce_arch                   13 # Coalescing arch (default = 13, anything else is off for now)
-gpgpu_num_sched_per_core                    2 # Number of warp schedulers per core
-gpgpu_max_insn_issue_per_warp                    1 # Max number of instructions that can be issued per warp in one cycle by scheduler
-gpgpu_simt_core_sim_order                    1 # Select the simulation order of cores in a cluster (0=Fix, 1=Round-Robin)
-gpgpu_pipeline_widths        2,1,1,2,1,1,2 # Pipeline widths ID_OC_SP,ID_OC_SFU,ID_OC_MEM,OC_EX_SP,OC_EX_SFU,OC_EX_MEM,EX_WB
-gpgpu_num_sp_units                     2 # Number of SP units (default=1)
-gpgpu_num_sfu_units                    1 # Number of SF units (default=1)
-gpgpu_num_mem_units                    1 # Number if ldst units (default=1) WARNING: not hooked up to anything
-gpgpu_scheduler       warp_limiting:2:16 # Scheduler configuration: < lrr | gto | two_level_active > If two_level_active:<num_active_warps>:<inner_prioritization>:<outer_prioritization>For complete list of prioritization values see shader.h enum scheduler_prioritization_typeDefault: gto
-gpgpu_dram_scheduler                    1 # 0 = fifo, 1 = FR-FCFS (defaul)
-gpgpu_dram_partition_queues              8:8:8:8 # i2$:$2d:d2$:$2i
-l2_ideal                               0 # Use a ideal L2 cache that always hit
-gpgpu_cache:dl2     64:128:8,L:B:m:W:L,A:32:4,4:0,32 # unified banked L2 data cache config  {<nsets>:<bsize>:<assoc>,<rep>:<wr>:<alloc>:<wr_alloc>,<mshr>:<N>:<merge>,<mq>}
-gpgpu_cache:dl2_texture_only                    0 # L2 cache used for texture only
-gpgpu_n_mem                            6 # number of memory modules (e.g. memory controllers) in gpu
-gpgpu_n_sub_partition_per_mchannel                    2 # number of memory subpartition in each memory module
-gpgpu_n_mem_per_ctrlr                    2 # number of memory chips per memory controller
-gpgpu_memlatency_stat                   14 # track and display latency statistics 0x2 enables MC, 0x4 enables queue logs
-gpgpu_frfcfs_dram_sched_queue_size                   16 # 0 = unlimited (default); # entries per chip
-gpgpu_dram_return_queue_size                  116 # 0 = unlimited (default); # entries per chip
-gpgpu_dram_buswidth                    4 # default = 4 bytes (8 bytes per cycle at DDR)
-gpgpu_dram_burst_length                    8 # Burst length of each DRAM request (default = 4 data bus cycle)
-dram_data_command_freq_ratio                    4 # Frequency ratio between DRAM data bus and command bus (default = 2 times, i.e. DDR)
-gpgpu_dram_timing_opt nbk=16:CCD=2:RRD=6:RCD=12:RAS=28:RP=12:RC=40: CL=12:WL=4:CDLR=5:WR=12:nbkgrp=4:CCDL=3:RTPL=2 # DRAM timing parameters = {nbk:tCCD:tRRD:tRCD:tRAS:tRP:tRC:CL:WL:tCDLR:tWR:nbkgrp:tCCDL:tRTPL}
-rop_latency                          120 # ROP queue latency (default 85)
-dram_latency                         100 # DRAM latency (default 30)
-gpgpu_mem_addr_mapping dramid@8;00000000.00000000.00000000.00000000.0000RRRR.RRRRRRRR.BBBCCCCB.CCSSSSSS # mapping memory address to dram model {dramid@<start bit>;<memory address map>}
-gpgpu_mem_addr_test                    0 # run sweep test to check address mapping for aliased address
-gpgpu_mem_address_mask                    1 # 0 = old addressing mask, 1 = new addressing mask, 2 = new add. mask + flipped bank sel and chip sel bits
-gpuwattch_xml_file  gpuwattch_gtx480.xml # GPUWattch XML file
-power_simulation_enabled                    0 # Turn on power simulator (1=On, 0=Off)
-power_per_cycle_dump                    0 # Dump detailed power output each cycle
-power_trace_enabled                    0 # produce a file for the power trace (1=On, 0=Off)
-power_trace_zlevel                     6 # Compression level of the power trace output log (0=no comp, 9=highest)
-steady_power_levels_enabled                    0 # produce a file for the steady power levels (1=On, 0=Off)
-steady_state_definition                  8:4 # allowed deviation:number of samples
-gpgpu_max_cycle                        0 # terminates gpu simulation early (0 = no limit)
-gpgpu_max_insn                         0 # terminates gpu simulation early (0 = no limit)
-gpgpu_max_cta                          0 # terminates gpu simulation early (0 = no limit)
-gpgpu_runtime_stat                   500 # display runtime statistics such as dram utilization {<freq>:<flag>}
-liveness_message_freq                    1 # Minimum number of seconds between simulation liveness messages (0 = always print)
-gpgpu_flush_l1_cache                    0 # Flush L1 cache at the end of each kernel call
-gpgpu_flush_l2_cache                    0 # Flush L2 cache at the end of each kernel call
-gpgpu_deadlock_detect                    1 # Stop the simulation at deadlock (1=on (default), 0=off)
-gpgpu_ptx_instruction_classification                    0 # if enabled will classify ptx instruction types per kernel (Max 255 kernels now)
-gpgpu_ptx_sim_mode                     0 # Select between Performance (default) or Functional simulation (1)
-gpgpu_clock_domains 700.0:700.0:700.0:924.0 # Clock Domain Frequencies in MhZ {<Core Clock>:<ICNT Clock>:<L2 Clock>:<DRAM Clock>}
-gpgpu_max_concurrent_kernel                    8 # maximum kernels that can run concurrently on GPU
-gpgpu_cflog_interval                    0 # Interval between each snapshot in control flow logger
-visualizer_enabled                     0 # Turn on visualizer output (1=On, 0=Off)
-visualizer_outputfile                 NULL # Specifies the output log file for visualizer
-visualizer_zlevel                      6 # Compression level of the visualizer output log (0=no comp, 9=highest)
-trace_enabled                          0 # Turn on traces
-trace_components                    none # comma seperated list of traces to enable. Complete list found in trace_streams.tup. Default none
-trace_sampling_core                    0 # The core which is printed using CORE_DPRINTF. Default 0
-trace_sampling_memory_partition                   -1 # The memory partition which is printed using MEMPART_DPRINTF. Default -1 (i.e. all)
-enable_ptx_file_line_stats                    1 # Turn on PTX source line statistic profiling. (1 = On)
-ptx_line_stats_filename gpgpu_inst_stats.txt # Output file for PTX source line statistics.
-save_embedded_ptx                      0 # saves ptx files embedded in binary as <n>.ptx
-keep                                   0 # keep intermediate files created by GPGPU-Sim when interfacing with external programs
-gpgpu_ptx_save_converted_ptxplus                    0 # Saved converted ptxplus to a file
-ptx_opcode_latency_int         4,13,4,5,145 # Opcode latencies for integers <ADD,MAX,MUL,MAD,DIV>Default 1,1,19,25,145
-ptx_opcode_latency_fp          4,13,4,5,39 # Opcode latencies for single precision floating points <ADD,MAX,MUL,MAD,DIV>Default 1,1,1,1,30
-ptx_opcode_latency_dp         8,19,8,8,330 # Opcode latencies for double precision floating points <ADD,MAX,MUL,MAD,DIV>Default 8,8,8,8,335
-ptx_opcode_initiation_int            1,2,2,1,8 # Opcode initiation intervals for integers <ADD,MAX,MUL,MAD,DIV>Default 1,1,4,4,32
-ptx_opcode_initiation_fp            1,2,1,1,4 # Opcode initiation intervals for single precision floating points <ADD,MAX,MUL,MAD,DIV>Default 1,1,1,1,5
-ptx_opcode_initiation_dp         8,16,8,8,130 # Opcode initiation intervals for double precision floating points <ADD,MAX,MUL,MAD,DIV>Default 8,8,8,8,130
DRAM Timing Options:
nbk                                    16 # number of banks
CCD                                     2 # column to column delay
RRD                                     6 # minimal delay between activation of rows in different banks
RCD                                    12 # row to column delay
RAS                                    28 # time needed to activate row
RP                                     12 # time needed to precharge (deactivate) row
RC                                     40 # row cycle time
CDLR                                    5 # switching from write to read (changes tWTR)
WR                                     12 # last data-in to row precharge
CL                                     12 # CAS latency
WL                                      4 # Write latency
nbkgrp                                  4 # number of bank groups
CCDL                                    3 # column to column delay between accesses to different bank groups
RTPL                                    2 # read to precharge delay between accesses to different bank groups
Total number of memory sub partition = 12
addr_dec_mask[CHIP]  = 0000000000000000 	high:64 low:0
addr_dec_mask[BK]    = 000000000000e100 	high:16 low:8
addr_dec_mask[ROW]   = 000000000fff0000 	high:28 low:16
addr_dec_mask[COL]   = 0000000000001eff 	high:13 low:0
addr_dec_mask[BURST] = 000000000000003f 	high:6 low:0
sub_partition_id_mask = 0000000000000100
GPGPU-Sim uArch: clock freqs: 700000000.000000:700000000.000000:700000000.000000:924000000.000000
GPGPU-Sim uArch: clock periods: 0.00000000142857142857:0.00000000142857142857:0.00000000142857142857:0.00000000108225108225
*** Initializing Memory Statistics ***
GPGPU-Sim uArch: interconnect node map (shaderID+MemID to icntID)
GPGPU-Sim uArch: Memory nodes ID start from index: 15
GPGPU-Sim uArch:    0   1   2   3   4
GPGPU-Sim uArch:    5   6   7   8   9
GPGPU-Sim uArch:   10  11  12  13  14
GPGPU-Sim uArch:   15  16  17  18  19
GPGPU-Sim uArch:   20  21  22  23  24
GPGPU-Sim uArch:   25  26
GPGPU-Sim uArch: interconnect node reverse map (icntID to shaderID+MemID)
GPGPU-Sim uArch: Memory nodes start from ID: 15
GPGPU-Sim uArch:    0   1   2   3   4
GPGPU-Sim uArch:    5   6   7   8   9
GPGPU-Sim uArch:   10  11  12  13  14
GPGPU-Sim uArch:   15  16  17  18  19
GPGPU-Sim uArch:   20  21  22  23  24
GPGPU-Sim uArch:   25  26
8b559154bcb46b989d5bc71d4d3962f3  /sciclone/data10/hwang07/adwait/applications/benchmarks/shoc/bin/Serial/CUDA/Spmv
GPGPU-Sim uArch: performance model initialization complete.
GPGPU-Sim PTX: __cudaRegisterFatBinary, fat_cubin_handle = 1, filename=Spmv.cu
self exe links to: /sciclone/data10/hwang07/adwait/applications/benchmarks/shoc/bin/Serial/CUDA/Spmv
Running md5sum using "md5sum /sciclone/data10/hwang07/adwait/applications/benchmarks/shoc/bin/Serial/CUDA/Spmv "
Parsing file _cuobjdump_complete_output_HMvjqO
######### cuobjdump parser ########
## Adding new section ELF
Adding arch: sm_12
Adding identifier: Spmv.cu
## Adding new section ELF
Adding arch: sm_20
Adding identifier: Spmv.cu
## Adding new section PTX
Adding ptx filename: _cuobjdump_1.ptx
Adding arch: sm_20
Adding identifier: Spmv.cu
## Adding new section ELF
Adding arch: sm_13
Adding identifier: Spmv.cu
Done parsing!!!
GPGPU-Sim PTX: __cudaRegisterFunction _Z20spmv_ellpackr_kernelId11texReaderDPEvPKT_PKiS5_iPS1_ : hostFun 0x0x407f10, fat_cubin_handle = 1
GPGPU-Sim PTX: allocating global region for "vecTex" from 0x100 to 0x104 (global memory space)
GPGPU-Sim PTX: instruction assembly for function '_Z22spmv_csr_scalar_kernelIf11texReaderSPEvPKT_PKiS5_iPS1_'...   done.
GPGPU-Sim PTX: finding reconvergence points for '_Z22spmv_csr_scalar_kernelIf11texReaderSPEvPKT_PKiS5_iPS1_'...
GPGPU-Sim PTX: Finding dominators for '_Z22spmv_csr_scalar_kernelIf11texReaderSPEvPKT_PKiS5_iPS1_'...
GPGPU-Sim PTX: Finding immediate dominators for '_Z22spmv_csr_scalar_kernelIf11texReaderSPEvPKT_PKiS5_iPS1_'...
GPGPU-Sim PTX: Finding postdominators for '_Z22spmv_csr_scalar_kernelIf11texReaderSPEvPKT_PKiS5_iPS1_'...
GPGPU-Sim PTX: Finding immediate postdominators for '_Z22spmv_csr_scalar_kernelIf11texReaderSPEvPKT_PKiS5_iPS1_'...
GPGPU-Sim PTX: pre-decoding instructions for '_Z22spmv_csr_scalar_kernelIf11texReaderSPEvPKT_PKiS5_iPS1_'...
GPGPU-Sim PTX: reconvergence points for _Z22spmv_csr_scalar_kernelIf11texReaderSPEvPKT_PKiS5_iPS1_...
GPGPU-Sim PTX:  1 (potential) branch divergence @  PC=0x038 (_1.ptx:72) @%p1 bra $Lt_0_2050;
GPGPU-Sim PTX:    immediate post dominator      @  PC=0x180 (_1.ptx:124) exit;
GPGPU-Sim PTX:  2 (potential) branch divergence @  PC=0x080 (_1.ptx:84) @%p2 bra $Lt_0_3586;
GPGPU-Sim PTX:    immediate post dominator      @  PC=0x168 (_1.ptx:119) ld.param.u64 %rd11, [__cudaparm__Z22spmv_csr_scalar_kernelIf11texReaderSPEvPKT_PKiS5_iPS1__out];
GPGPU-Sim PTX:  3 (potential) branch divergence @  PC=0x150 (_1.ptx:113) @%p3 bra $Lt_0_3074;
GPGPU-Sim PTX:    immediate post dominator      @  PC=0x158 (_1.ptx:114) bra.uni $Lt_0_2562;
GPGPU-Sim PTX:  4 (potential) branch divergence @  PC=0x158 (_1.ptx:114) bra.uni $Lt_0_2562;
GPGPU-Sim PTX:    immediate post dominator      @  PC=0x168 (_1.ptx:119) ld.param.u64 %rd11, [__cudaparm__Z22spmv_csr_scalar_kernelIf11texReaderSPEvPKT_PKiS5_iPS1__out];
GPGPU-Sim PTX: ... end of reconvergence points for _Z22spmv_csr_scalar_kernelIf11texReaderSPEvPKT_PKiS5_iPS1_
GPGPU-Sim PTX: ... done pre-decoding instructions for '_Z22spmv_csr_scalar_kernelIf11texReaderSPEvPKT_PKiS5_iPS1_'.
GPGPU-Sim PTX: instruction assembly for function '_Z4zeroIfEvPT_i'...   done.
GPGPU-Sim PTX: finding reconvergence points for '_Z4zeroIfEvPT_i'...
GPGPU-Sim PTX: Finding dominators for '_Z4zeroIfEvPT_i'...
GPGPU-Sim PTX: Finding immediate dominators for '_Z4zeroIfEvPT_i'...
GPGPU-Sim PTX: Finding postdominators for '_Z4zeroIfEvPT_i'...
GPGPU-Sim PTX: Finding immediate postdominators for '_Z4zeroIfEvPT_i'...
GPGPU-Sim PTX: pre-decoding instructions for '_Z4zeroIfEvPT_i'...
GPGPU-Sim PTX: reconvergence points for _Z4zeroIfEvPT_i...
GPGPU-Sim PTX:  1 (potential) branch divergence @  PC=0x1c0 (_1.ptx:145) @%p1 bra $Lt_1_1026;
GPGPU-Sim PTX:    immediate post dominator      @  PC=0x1f8 (_1.ptx:155) exit;
GPGPU-Sim PTX: ... end of reconvergence points for _Z4zeroIfEvPT_i
GPGPU-Sim PTX: ... done pre-decoding instructions for '_Z4zeroIfEvPT_i'.
GPGPU-Sim PTX: allocating shared region for "__cuda___cuda_local_var_81056_45_non_const_partialSums96" from 0x0 to 0x200 (shared memory space)
GPGPU-Sim PTX: instruction assembly for function '_Z22spmv_csr_vector_kernelIf11texReaderSPEvPKT_PKiS5_iPS1_'...   done.
GPGPU-Sim PTX: finding reconvergence points for '_Z22spmv_csr_vector_kernelIf11texReaderSPEvPKT_PKiS5_iPS1_'...
GPGPU-Sim PTX: Finding dominators for '_Z22spmv_csr_vector_kernelIf11texReaderSPEvPKT_PKiS5_iPS1_'...
GPGPU-Sim PTX: Finding immediate dominators for '_Z22spmv_csr_vector_kernelIf11texReaderSPEvPKT_PKiS5_iPS1_'...
GPGPU-Sim PTX: Finding postdominators for '_Z22spmv_csr_vector_kernelIf11texReaderSPEvPKT_PKiS5_iPS1_'...
GPGPU-Sim PTX: Finding immediate postdominators for '_Z22spmv_csr_vector_kernelIf11texReaderSPEvPKT_PKiS5_iPS1_'...
GPGPU-Sim PTX: pre-decoding instructions for '_Z22spmv_csr_vector_kernelIf11texReaderSPEvPKT_PKiS5_iPS1_'...
GPGPU-Sim PTX: reconvergence points for _Z22spmv_csr_vector_kernelIf11texReaderSPEvPKT_PKiS5_iPS1_...
GPGPU-Sim PTX:  1 (potential) branch divergence @  PC=0x250 (_1.ptx:183) @%p1 bra $Lt_2_10754;
GPGPU-Sim PTX:    immediate post dominator      @  PC=0x510 (_1.ptx:294) exit;
GPGPU-Sim PTX:  2 (potential) branch divergence @  PC=0x2b0 (_1.ptx:198) @%p2 bra $Lt_2_11266;
GPGPU-Sim PTX:    immediate post dominator      @  PC=0x398 (_1.ptx:233) mov.u64 %rd13, __cuda___cuda_local_var_81056_45_non_const_partialSums96;
GPGPU-Sim PTX:  3 (potential) branch divergence @  PC=0x380 (_1.ptx:227) @%p3 bra $Lt_2_7682;
GPGPU-Sim PTX:    immediate post dominator      @  PC=0x388 (_1.ptx:228) bra.uni $Lt_2_7170;
GPGPU-Sim PTX:  4 (potential) branch divergence @  PC=0x388 (_1.ptx:228) bra.uni $Lt_2_7170;
GPGPU-Sim PTX:    immediate post dominator      @  PC=0x398 (_1.ptx:233) mov.u64 %rd13, __cuda___cuda_local_var_81056_45_non_const_partialSums96;
GPGPU-Sim PTX:  5 (potential) branch divergence @  PC=0x3d0 (_1.ptx:240) @%p4 bra $Lt_2_8194;
GPGPU-Sim PTX:    immediate post dominator      @  PC=0x3f8 (_1.ptx:247) mov.u32 %r25, 7;
GPGPU-Sim PTX:  6 (potential) branch divergence @  PC=0x408 (_1.ptx:249) @%p5 bra $Lt_2_8706;
GPGPU-Sim PTX:    immediate post dominator      @  PC=0x430 (_1.ptx:256) mov.u32 %r26, 3;
GPGPU-Sim PTX:  7 (potential) branch divergence @  PC=0x440 (_1.ptx:258) @%p6 bra $Lt_2_9218;
GPGPU-Sim PTX:    immediate post dominator      @  PC=0x468 (_1.ptx:265) mov.u32 %r27, 1;
GPGPU-Sim PTX:  8 (potential) branch divergence @  PC=0x478 (_1.ptx:267) @%p7 bra $Lt_2_9730;
GPGPU-Sim PTX:    immediate post dominator      @  PC=0x4a0 (_1.ptx:274) mov.u32 %r28, 0;
GPGPU-Sim PTX:  9 (potential) branch divergence @  PC=0x4b0 (_1.ptx:276) @%p8 bra $Lt_2_10242;
GPGPU-Sim PTX:    immediate post dominator      @  PC=0x4d8 (_1.ptx:283) mov.u32 %r29, 0;
GPGPU-Sim PTX: 10 (potential) branch divergence @  PC=0x4e8 (_1.ptx:285) @%p9 bra $Lt_2_10754;
GPGPU-Sim PTX:    immediate post dominator      @  PC=0x510 (_1.ptx:294) exit;
GPGPU-Sim PTX: ... end of reconvergence points for _Z22spmv_csr_vector_kernelIf11texReaderSPEvPKT_PKiS5_iPS1_
GPGPU-Sim PTX: ... done pre-decoding instructions for '_Z22spmv_csr_vector_kernelIf11texReaderSPEvPKT_PKiS5_iPS1_'.
GPGPU-Sim PTX: instruction assembly for function '_Z20spmv_ellpackr_kernelIf11texReaderSPEvPKT_PKiS5_iPS1_'...   done.
GPGPU-Sim PTX: finding reconvergence points for '_Z20spmv_ellpackr_kernelIf11texReaderSPEvPKT_PKiS5_iPS1_'...
GPGPU-Sim PTX: Finding dominators for '_Z20spmv_ellpackr_kernelIf11texReaderSPEvPKT_PKiS5_iPS1_'...
GPGPU-Sim PTX: Finding immediate dominators for '_Z20spmv_ellpackr_kernelIf11texReaderSPEvPKT_PKiS5_iPS1_'...
GPGPU-Sim PTX: Finding postdominators for '_Z20spmv_ellpackr_kernelIf11texReaderSPEvPKT_PKiS5_iPS1_'...
GPGPU-Sim PTX: Finding immediate postdominators for '_Z20spmv_ellpackr_kernelIf11texReaderSPEvPKT_PKiS5_iPS1_'...
GPGPU-Sim PTX: pre-decoding instructions for '_Z20spmv_ellpackr_kernelIf11texReaderSPEvPKT_PKiS5_iPS1_'...
GPGPU-Sim PTX: reconvergence points for _Z20spmv_ellpackr_kernelIf11texReaderSPEvPKT_PKiS5_iPS1_...
GPGPU-Sim PTX:  1 (potential) branch divergence @  PC=0x550 (_1.ptx:318) @%p1 bra $Lt_3_2050;
GPGPU-Sim PTX:    immediate post dominator      @  PC=0x698 (_1.ptx:368) exit;
GPGPU-Sim PTX:  2 (potential) branch divergence @  PC=0x590 (_1.ptx:327) @%p2 bra $Lt_3_3586;
GPGPU-Sim PTX:    immediate post dominator      @  PC=0x680 (_1.ptx:363) ld.param.u64 %rd11, [__cudaparm__Z20spmv_ellpackr_kernelIf11texReaderSPEvPKT_PKiS5_iPS1__out];
GPGPU-Sim PTX:  3 (potential) branch divergence @  PC=0x668 (_1.ptx:357) @%p3 bra $Lt_3_3074;
GPGPU-Sim PTX:    immediate post dominator      @  PC=0x670 (_1.ptx:358) bra.uni $Lt_3_2562;
GPGPU-Sim PTX:  4 (potential) branch divergence @  PC=0x670 (_1.ptx:358) bra.uni $Lt_3_2562;
GPGPU-Sim PTX:    immediate post dominator      @  PC=0x680 (_1.ptx:363) ld.param.u64 %rd11, [__cudaparm__Z20spmv_ellpackr_kernelIf11texReaderSPEvPKT_PKiS5_iPS1__out];
GPGPU-Sim PTX: ... end of reconvergence points for _Z20spmv_ellpackr_kernelIf11texReaderSPEvPKT_PKiS5_iPS1_
GPGPU-Sim PTX: ... done pre-decoding instructions for '_Z20spmv_ellpackr_kernelIf11texReaderSPEvPKT_PKiS5_iPS1_'.
GPGPU-Sim PTX: allocating global region for "vecTexD" from 0x104 to 0x108 (global memory space)
GPGPU-Sim PTX: instruction assembly for function '_Z22spmv_csr_scalar_kernelId11texReaderDPEvPKT_PKiS5_iPS1_'...   done.
GPGPU-Sim PTX: finding reconvergence points for '_Z22spmv_csr_scalar_kernelId11texReaderDPEvPKT_PKiS5_iPS1_'...
GPGPU-Sim PTX: Finding dominators for '_Z22spmv_csr_scalar_kernelId11texReaderDPEvPKT_PKiS5_iPS1_'...
GPGPU-Sim PTX: Finding immediate dominators for '_Z22spmv_csr_scalar_kernelId11texReaderDPEvPKT_PKiS5_iPS1_'...
GPGPU-Sim PTX: Finding postdominators for '_Z22spmv_csr_scalar_kernelId11texReaderDPEvPKT_PKiS5_iPS1_'...
GPGPU-Sim PTX: Finding immediate postdominators for '_Z22spmv_csr_scalar_kernelId11texReaderDPEvPKT_PKiS5_iPS1_'...
GPGPU-Sim PTX: pre-decoding instructions for '_Z22spmv_csr_scalar_kernelId11texReaderDPEvPKT_PKiS5_iPS1_'...
GPGPU-Sim PTX: reconvergence points for _Z22spmv_csr_scalar_kernelId11texReaderDPEvPKT_PKiS5_iPS1_...
GPGPU-Sim PTX:  1 (potential) branch divergence @  PC=0x6d8 (_1.ptx:393) @%p1 bra $Lt_4_2050;
GPGPU-Sim PTX:    immediate post dominator      @  PC=0x840 (_1.ptx:449) exit;
GPGPU-Sim PTX:  2 (potential) branch divergence @  PC=0x720 (_1.ptx:405) @%p2 bra $Lt_4_3586;
GPGPU-Sim PTX:    immediate post dominator      @  PC=0x820 (_1.ptx:443) ld.param.u64 %rd12, [__cudaparm__Z22spmv_csr_scalar_kernelId11texReaderDPEvPKT_PKiS5_iPS1__out];
GPGPU-Sim PTX:  3 (potential) branch divergence @  PC=0x808 (_1.ptx:437) @%p3 bra $Lt_4_3074;
GPGPU-Sim PTX:    immediate post dominator      @  PC=0x810 (_1.ptx:438) bra.uni $Lt_4_2562;
GPGPU-Sim PTX:  4 (potential) branch divergence @  PC=0x810 (_1.ptx:438) bra.uni $Lt_4_2562;
GPGPU-Sim PTX:    immediate post dominator      @  PC=0x820 (_1.ptx:443) ld.param.u64 %rd12, [__cudaparm__Z22spmv_csr_scalar_kernelId11texReaderDPEvPKT_PKiS5_iPS1__out];
GPGPU-Sim PTX: ... end of reconvergence points for _Z22spmv_csr_scalar_kernelId11texReaderDPEvPKT_PKiS5_iPS1_
GPGPU-Sim PTX: ... done pre-decoding instructions for '_Z22spmv_csr_scalar_kernelId11texReaderDPEvPKT_PKiS5_iPS1_'.
GPGPU-Sim PTX: instruction assembly for function '_Z4zeroIdEvPT_i'...   done.
GPGPU-Sim PTX: finding reconvergence points for '_Z4zeroIdEvPT_i'...
GPGPU-Sim PTX: Finding dominators for '_Z4zeroIdEvPT_i'...
GPGPU-Sim PTX: Finding immediate dominators for '_Z4zeroIdEvPT_i'...
GPGPU-Sim PTX: Finding postdominators for '_Z4zeroIdEvPT_i'...
GPGPU-Sim PTX: Finding immediate postdominators for '_Z4zeroIdEvPT_i'...
GPGPU-Sim PTX: pre-decoding instructions for '_Z4zeroIdEvPT_i'...
GPGPU-Sim PTX: reconvergence points for _Z4zeroIdEvPT_i...
GPGPU-Sim PTX:  1 (potential) branch divergence @  PC=0x880 (_1.ptx:470) @%p1 bra $Lt_5_1026;
GPGPU-Sim PTX:    immediate post dominator      @  PC=0x8b8 (_1.ptx:480) exit;
GPGPU-Sim PTX: ... end of reconvergence points for _Z4zeroIdEvPT_i
GPGPU-Sim PTX: ... done pre-decoding instructions for '_Z4zeroIdEvPT_i'.
GPGPU-Sim PTX: allocating shared region for "__cuda___cuda_local_var_81056_45_non_const_partialSums744" from 0x0 to 0x400 (shared memory space)
GPGPU-Sim PTX: instruction assembly for function '_Z22spmv_csr_vector_kernelId11texReaderDPEvPKT_PKiS5_iPS1_'...   done.
GPGPU-Sim PTX: finding reconvergence points for '_Z22spmv_csr_vector_kernelId11texReaderDPEvPKT_PKiS5_iPS1_'...
GPGPU-Sim PTX: Finding dominators for '_Z22spmv_csr_vector_kernelId11texReaderDPEvPKT_PKiS5_iPS1_'...
GPGPU-Sim PTX: Finding immediate dominators for '_Z22spmv_csr_vector_kernelId11texReaderDPEvPKT_PKiS5_iPS1_'...
GPGPU-Sim PTX: Finding postdominators for '_Z22spmv_csr_vector_kernelId11texReaderDPEvPKT_PKiS5_iPS1_'...
GPGPU-Sim PTX: Finding immediate postdominators for '_Z22spmv_csr_vector_kernelId11texReaderDPEvPKT_PKiS5_iPS1_'...
GPGPU-Sim PTX: pre-decoding instructions for '_Z22spmv_csr_vector_kernelId11texReaderDPEvPKT_PKiS5_iPS1_'...
GPGPU-Sim PTX: reconvergence points for _Z22spmv_csr_vector_kernelId11texReaderDPEvPKT_PKiS5_iPS1_...
GPGPU-Sim PTX:  1 (potential) branch divergence @  PC=0x910 (_1.ptx:508) @%p1 bra $Lt_6_10754;
GPGPU-Sim PTX:    immediate post dominator      @  PC=0xbf8 (_1.ptx:624) exit;
GPGPU-Sim PTX:  2 (potential) branch divergence @  PC=0x970 (_1.ptx:523) @%p2 bra $Lt_6_11266;
GPGPU-Sim PTX:    immediate post dominator      @  PC=0xa78 (_1.ptx:562) mov.u64 %rd15, __cuda___cuda_local_var_81056_45_non_const_partialSums744;
GPGPU-Sim PTX:  3 (potential) branch divergence @  PC=0xa60 (_1.ptx:556) @%p3 bra $Lt_6_7682;
GPGPU-Sim PTX:    immediate post dominator      @  PC=0xa68 (_1.ptx:557) bra.uni $Lt_6_7170;
GPGPU-Sim PTX:  4 (potential) branch divergence @  PC=0xa68 (_1.ptx:557) bra.uni $Lt_6_7170;
GPGPU-Sim PTX:    immediate post dominator      @  PC=0xa78 (_1.ptx:562) mov.u64 %rd15, __cuda___cuda_local_var_81056_45_non_const_partialSums744;
GPGPU-Sim PTX:  5 (potential) branch divergence @  PC=0xab0 (_1.ptx:569) @%p4 bra $Lt_6_8194;
GPGPU-Sim PTX:    immediate post dominator      @  PC=0xad8 (_1.ptx:576) mov.u32 %r31, 7;
GPGPU-Sim PTX:  6 (potential) branch divergence @  PC=0xae8 (_1.ptx:578) @%p5 bra $Lt_6_8706;
GPGPU-Sim PTX:    immediate post dominator      @  PC=0xb10 (_1.ptx:585) mov.u32 %r32, 3;
GPGPU-Sim PTX:  7 (potential) branch divergence @  PC=0xb20 (_1.ptx:587) @%p6 bra $Lt_6_9218;
GPGPU-Sim PTX:    immediate post dominator      @  PC=0xb48 (_1.ptx:594) mov.u32 %r33, 1;
GPGPU-Sim PTX:  8 (potential) branch divergence @  PC=0xb58 (_1.ptx:596) @%p7 bra $Lt_6_9730;
GPGPU-Sim PTX:    immediate post dominator      @  PC=0xb80 (_1.ptx:603) mov.u32 %r34, 0;
GPGPU-Sim PTX:  9 (potential) branch divergence @  PC=0xb90 (_1.ptx:605) @%p8 bra $Lt_6_10242;
GPGPU-Sim PTX:    immediate post dominator      @  PC=0xbb8 (_1.ptx:612) mov.u32 %r35, 0;
GPGPU-Sim PTX: 10 (potential) branch divergence @  PC=0xbc8 (_1.ptx:614) @%p9 bra $Lt_6_10754;
GPGPU-Sim PTX:    immediate post dominator      @  PC=0xbf8 (_1.ptx:624) exit;
GPGPU-Sim PTX: ... end of reconvergence points for _Z22spmv_csr_vector_kernelId11texReaderDPEvPKT_PKiS5_iPS1_
GPGPU-Sim PTX: ... done pre-decoding instructions for '_Z22spmv_csr_vector_kernelId11texReaderDPEvPKT_PKiS5_iPS1_'.
GPGPU-Sim PTX: instruction assembly for function '_Z20spmv_ellpackr_kernelId11texReaderDPEvPKT_PKiS5_iPS1_'...   done.
GPGPU-Sim PTX: finding reconvergence points for '_Z20spmv_ellpackr_kernelId11texReaderDPEvPKT_PKiS5_iPS1_'...
GPGPU-Sim PTX: Finding dominators for '_Z20spmv_ellpackr_kernelId11texReaderDPEvPKT_PKiS5_iPS1_'...
GPGPU-Sim PTX: Finding immediate dominators for '_Z20spmv_ellpackr_kernelId11texReaderDPEvPKT_PKiS5_iPS1_'...
GPGPU-Sim PTX: Finding postdominators for '_Z20spmv_ellpackr_kernelId11texReaderDPEvPKT_PKiS5_iPS1_'...
GPGPU-Sim PTX: Finding immediate postdominators for '_Z20spmv_ellpackr_kernelId11texReaderDPEvPKT_PKiS5_iPS1_'...
GPGPU-Sim PTX: pre-decoding instructions for '_Z20spmv_ellpackr_kernelId11texReaderDPEvPKT_PKiS5_iPS1_'...
GPGPU-Sim PTX: reconvergence points for _Z20spmv_ellpackr_kernelId11texReaderDPEvPKT_PKiS5_iPS1_...
GPGPU-Sim PTX:  1 (potential) branch divergence @  PC=0xc38 (_1.ptx:648) @%p1 bra $Lt_7_2050;
GPGPU-Sim PTX:    immediate post dominator      @  PC=0xda8 (_1.ptx:703) exit;
GPGPU-Sim PTX:  2 (potential) branch divergence @  PC=0xc78 (_1.ptx:657) @%p2 bra $Lt_7_3586;
GPGPU-Sim PTX:    immediate post dominator      @  PC=0xd88 (_1.ptx:697) ld.param.u64 %rd13, [__cudaparm__Z20spmv_ellpackr_kernelId11texReaderDPEvPKT_PKiS5_iPS1__out];
GPGPU-Sim PTX:  3 (potential) branch divergence @  PC=0xd70 (_1.ptx:691) @%p3 bra $Lt_7_3074;
GPGPU-Sim PTX:    immediate post dominator      @  PC=0xd78 (_1.ptx:692) bra.uni $Lt_7_2562;
GPGPU-Sim PTX:  4 (potential) branch divergence @  PC=0xd78 (_1.ptx:692) bra.uni $Lt_7_2562;
GPGPU-Sim PTX:    immediate post dominator      @  PC=0xd88 (_1.ptx:697) ld.param.u64 %rd13, [__cudaparm__Z20spmv_ellpackr_kernelId11texReaderDPEvPKT_PKiS5_iPS1__out];
GPGPU-Sim PTX: ... end of reconvergence points for _Z20spmv_ellpackr_kernelId11texReaderDPEvPKT_PKiS5_iPS1_
GPGPU-Sim PTX: ... done pre-decoding instructions for '_Z20spmv_ellpackr_kernelId11texReaderDPEvPKT_PKiS5_iPS1_'.
GPGPU-Sim PTX: finished parsing EMBEDDED .ptx file _1.ptx
Adding _cuobjdump_1.ptx with cubin handle 1
GPGPU-Sim PTX: extracting embedded .ptx to temporary file "_ptx_7nkMuj"
Running: cat _ptx_7nkMuj | sed 's/.version 1.5/.version 1.4/' | sed 's/, texmode_independent//' | sed 's/\(\.extern \.const\[1\] .b8 \w\+\)\[\]/\1\[1\]/' | sed 's/const\[.\]/const\[0\]/g' > _ptx2_zYyA8O
GPGPU-Sim PTX: generating ptxinfo using "$CUDA_INSTALL_PATH/bin/ptxas --gpu-name=sm_20 -v _ptx2_zYyA8O --output-file  /dev/null 2> _ptx_7nkMujinfo"
GPGPU-Sim PTX: Kernel '_Z20spmv_ellpackr_kernelId11texReaderDPEvPKT_PKiS5_iPS1_' : regs=19, lmem=0, smem=0, cmem=72
GPGPU-Sim PTX: Kernel '_Z22spmv_csr_vector_kernelId11texReaderDPEvPKT_PKiS5_iPS1_' : regs=33, lmem=0, smem=1024, cmem=72
GPGPU-Sim PTX: Kernel '_Z4zeroIdEvPT_i' : regs=6, lmem=0, smem=0, cmem=44
GPGPU-Sim PTX: Kernel '_Z22spmv_csr_scalar_kernelId11texReaderDPEvPKT_PKiS5_iPS1_' : regs=15, lmem=0, smem=0, cmem=72
GPGPU-Sim PTX: Kernel '_Z20spmv_ellpackr_kernelIf11texReaderSPEvPKT_PKiS5_iPS1_' : regs=14, lmem=0, smem=0, cmem=72
GPGPU-Sim PTX: Kernel '_Z22spmv_csr_vector_kernelIf11texReaderSPEvPKT_PKiS5_iPS1_' : regs=22, lmem=0, smem=512, cmem=72
GPGPU-Sim PTX: Kernel '_Z4zeroIfEvPT_i' : regs=6, lmem=0, smem=0, cmem=44
GPGPU-Sim PTX: Kernel '_Z22spmv_csr_scalar_kernelIf11texReaderSPEvPKT_PKiS5_iPS1_' : regs=12, lmem=0, smem=0, cmem=72
GPGPU-Sim PTX: removing ptxinfo using "rm -f _ptx_7nkMuj _ptx2_zYyA8O _ptx_7nkMujinfo"
GPGPU-Sim PTX: loading globals with explicit initializers... 
GPGPU-Sim PTX: finished loading globals (0 bytes total).
GPGPU-Sim PTX: loading constants with explicit initializers...  done.
GPGPU-Sim PTX: __cudaRegisterFunction _Z22spmv_csr_vector_kernelId11texReaderDPEvPKT_PKiS5_iPS1_ : hostFun 0x0x407f00, fat_cubin_handle = 1
GPGPU-Sim PTX: __cudaRegisterFunction _Z4zeroIdEvPT_i : hostFun 0x0x407ea0, fat_cubin_handle = 1
GPGPU-Sim PTX: __cudaRegisterFunction _Z22spmv_csr_scalar_kernelId11texReaderDPEvPKT_PKiS5_iPS1_ : hostFun 0x0x407e90, fat_cubin_handle = 1
GPGPU-Sim PTX: __cudaRegisterFunction _Z20spmv_ellpackr_kernelIf11texReaderSPEvPKT_PKiS5_iPS1_ : hostFun 0x0x407e80, fat_cubin_handle = 1
GPGPU-Sim PTX: __cudaRegisterFunction _Z22spmv_csr_vector_kernelIf11texReaderSPEvPKT_PKiS5_iPS1_ : hostFun 0x0x407e70, fat_cubin_handle = 1
GPGPU-Sim PTX: __cudaRegisterFunction _Z4zeroIfEvPT_i : hostFun 0x0x407e10, fat_cubin_handle = 1
GPGPU-Sim PTX: __cudaRegisterFunction _Z22spmv_csr_scalar_kernelIf11texReaderSPEvPKT_PKiS5_iPS1_ : hostFun 0x0x407e00, fat_cubin_handle = 1
GPGPU-Sim PTX: in __cudaRegisterTexture:
GPGPU-Sim PTX:   int dim = 1
GPGPU-Sim PTX:   int norm = 0
GPGPU-Sim PTX:   int ext = 0
GPGPU-Sim PTX:   Execution warning: Not finished implementing "void __cudaRegisterTexture(void**, const textureReference*, const void**, const char*, int, int, int)"
GPGPU-Sim PTX: in __cudaRegisterTexture:
GPGPU-Sim PTX:   int dim = 1
GPGPU-Sim PTX:   int norm = 0
GPGPU-Sim PTX:   int ext = 0
GPGPU-Sim PTX:   Execution warning: Not finished implementing "void __cudaRegisterTexture(void**, const textureReference*, const void**, const char*, int, int, int)"
Chose device: name='GPGPU-Sim_vGPGPU-Sim Simulator Version 3.2.2 ' index=0
Single precision tests:
CSR Test
event update
event update
GPGPU-Sim API: cudaEventSynchronize ** waiting for event
GPGPU-Sim API: cudaEventSynchronize ** event detected
GPGPU-Sim PTX: in cudaBindTexture: sizeof(struct textureReference) = 104
GPGPU-Sim PTX:   size = 4096
GPGPU-Sim PTX:   texref = 0x62ad60, array = 0x287fcf0
GPGPU-Sim PTX:   devPtr32 = 80014800
GPGPU-Sim PTX:   Name corresponding to textureReference: vecTex
GPGPU-Sim PTX:   ChannelFormatDesc: x=32, y=0, z=0, w=0
GPGPU-Sim PTX:   Texture Normalized? = 0
GPGPU-Sim PTX:   texel size = 4
GPGPU-Sim PTX:   texture cache linesize = 128
GPGPU-Sim PTX:   Tx = 8; Ty = 4, Tx_numbits = 3, Ty_numbits = 2
GPGPU-Sim PTX:   Texel size = 4 bytes; texel_size_numbits = 2
GPGPU-Sim PTX:   Binding texture to array starting at devPtr32 = 0x80014800
GPGPU-Sim PTX:   Texel size = 4 bytes
GPGPU-Sim PTX: devPtr = 0xffffffff80014800
CSR Scalar Kernel
event update

GPGPU-Sim PTX: cudaLaunch for 0x0x407e00 (mode=performance simulation) on stream 0
GPGPU-Sim PTX: pushing kernel '_Z22spmv_csr_scalar_kernelIf11texReaderSPEvPKT_PKiS5_iPS1_' to stream 0, gridDim= (8,1,1) blockDim = (128,1,1) 
kernel '_Z22spmv_csr_scalar_kernelIf11texReaderSPEvPKT_PKiS5_iPS1_' transfer to GPU hardware scheduler
GPGPU-Sim uArch: Shader 1 bind to kernel 1 '_Z22spmv_csr_scalar_kernelIf11texReaderSPEvPKT_PKiS5_iPS1_'
GPGPU-Sim uArch: CTA/core = 8, limited by: cta_limit
GPGPU-Sim uArch: core:  1, cta: 0 initialized @(1,0)
GPGPU-Sim uArch: Shader 2 bind to kernel 1 '_Z22spmv_csr_scalar_kernelIf11texReaderSPEvPKT_PKiS5_iPS1_'
GPGPU-Sim uArch: core:  2, cta: 0 initialized @(1,0)
GPGPU-Sim uArch: Shader 3 bind to kernel 1 '_Z22spmv_csr_scalar_kernelIf11texReaderSPEvPKT_PKiS5_iPS1_'
GPGPU-Sim uArch: core:  3, cta: 0 initialized @(1,0)
GPGPU-Sim uArch: Shader 4 bind to kernel 1 '_Z22spmv_csr_scalar_kernelIf11texReaderSPEvPKT_PKiS5_iPS1_'
GPGPU-Sim uArch: core:  4, cta: 0 initialized @(1,0)
GPGPU-Sim uArch: Shader 5 bind to kernel 1 '_Z22spmv_csr_scalar_kernelIf11texReaderSPEvPKT_PKiS5_iPS1_'
GPGPU-Sim uArch: core:  5, cta: 0 initialized @(1,0)
GPGPU-Sim uArch: Shader 6 bind to kernel 1 '_Z22spmv_csr_scalar_kernelIf11texReaderSPEvPKT_PKiS5_iPS1_'
GPGPU-Sim uArch: core:  6, cta: 0 initialized @(1,0)
GPGPU-Sim uArch: Shader 7 bind to kernel 1 '_Z22spmv_csr_scalar_kernelIf11texReaderSPEvPKT_PKiS5_iPS1_'
GPGPU-Sim uArch: core:  7, cta: 0 initialized @(1,0)
GPGPU-Sim uArch: Shader 8 bind to kernel 1 '_Z22spmv_csr_scalar_kernelIf11texReaderSPEvPKT_PKiS5_iPS1_'
GPGPU-Sim uArch: core:  8, cta: 0 initialized @(1,0)
GPGPU-Sim uArch: cycles simulated: 500  inst.: 5120 (ipc=10.2) sim_rate=5120 (inst/sec) elapsed = 0:0:00:01 / Tue Mar 22 12:59:30 2016
GPGPU-Sim uArch: cycles simulated: 1000  inst.: 15360 (ipc=15.4) sim_rate=2560 (inst/sec) elapsed = 0:0:00:06 / Tue Mar 22 12:59:35 2016
GPGPU-Sim uArch: cycles simulated: 1500  inst.: 24576 (ipc=16.4) sim_rate=210 (inst/sec) elapsed = 0:0:01:57 / Tue Mar 22 13:01:26 2016
GPGPU-Sim uArch: cycles simulated: 2000  inst.: 32768 (ipc=16.4) sim_rate=229 (inst/sec) elapsed = 0:0:02:23 / Tue Mar 22 13:01:52 2016
GPGPU-Sim uArch: cycles simulated: 2500  inst.: 35936 (ipc=14.4) sim_rate=215 (inst/sec) elapsed = 0:0:02:47 / Tue Mar 22 13:02:16 2016
GPGPU-Sim PTX: 100000 instructions simulated : ctaid=(0,0,0) tid=(63,0,0)
GPGPU-Sim PTX: 200000 instructions simulated : ctaid=(3,0,0) tid=(111,0,0)
GPGPU-Sim uArch: Shader 5 finished CTA #0 (5119,0), 0 CTAs running
GPGPU-Sim uArch: Shader 5 empty (release kernel 1 '_Z22spmv_csr_scalar_kernelIf11texReaderSPEvPKT_PKiS5_iPS1_').
GPGPU-Sim uArch: Shader 1 finished CTA #0 (5133,0), 0 CTAs running
GPGPU-Sim uArch: Shader 1 empty (release kernel 1 '_Z22spmv_csr_scalar_kernelIf11texReaderSPEvPKT_PKiS5_iPS1_').
GPGPU-Sim uArch: Shader 2 finished CTA #0 (5212,0), 0 CTAs running
GPGPU-Sim uArch: Shader 2 empty (release kernel 1 '_Z22spmv_csr_scalar_kernelIf11texReaderSPEvPKT_PKiS5_iPS1_').
GPGPU-Sim uArch: Shader 7 finished CTA #0 (5237,0), 0 CTAs running
GPGPU-Sim uArch: Shader 7 empty (release kernel 1 '_Z22spmv_csr_scalar_kernelIf11texReaderSPEvPKT_PKiS5_iPS1_').
GPGPU-Sim uArch: Shader 4 finished CTA #0 (5268,0), 0 CTAs running
GPGPU-Sim uArch: Shader 4 empty (release kernel 1 '_Z22spmv_csr_scalar_kernelIf11texReaderSPEvPKT_PKiS5_iPS1_').
GPGPU-Sim uArch: Shader 6 finished CTA #0 (5483,0), 0 CTAs running
GPGPU-Sim uArch: Shader 6 empty (release kernel 1 '_Z22spmv_csr_scalar_kernelIf11texReaderSPEvPKT_PKiS5_iPS1_').
GPGPU-Sim uArch: Shader 3 finished CTA #0 (5580,0), 0 CTAs running
GPGPU-Sim uArch: Shader 3 empty (release kernel 1 '_Z22spmv_csr_scalar_kernelIf11texReaderSPEvPKT_PKiS5_iPS1_').
GPGPU-Sim uArch: Shader 8 finished CTA #0 (10184,0), 0 CTAs running
GPGPU-Sim uArch: Shader 8 empty (release kernel 1 '_Z22spmv_csr_scalar_kernelIf11texReaderSPEvPKT_PKiS5_iPS1_').
GPGPU-Sim uArch: GPU detected kernel '_Z22spmv_csr_scalar_kernelIf11texReaderSPEvPKT_PKiS5_iPS1_' finished on shader 8.
